geometry optimzed in LAMMPS
_audit_creation_date              2020-12-01 
_audit_creation_method            'lammps2cif' 
_symmetry_space_group_name_H-M    'P1' 
_symmetry_Int_Tables_number       1 
_symmetry_cell_setting            triclinic 
loop_ 
_symmetry_equiv_pos_as_xyz 
  x,y,z 
_cell_length_a                    54.36181514 
_cell_length_b                    54.542735738602154 
_cell_length_c                    39.25113559080535 
_cell_angle_alpha                 90.02394391064148 
_cell_angle_beta                  89.93466879053499 
_cell_angle_gamma                 89.9784202599466 
loop_ 
_atom_site_label 
_atom_site_type_symbol 
_atom_site_fract_x 
_atom_site_fract_y 
_atom_site_fract_z 
_atom_site_charge 
O1          O  0.97115041  0.05773417  0.22645811    -0.78300
C2          C  0.05000561  0.05682952  0.23896079     0.82700
O3          O  0.99573759  0.98024065  0.18044948    -0.79400
O4          O  0.05077211  0.98038888  0.27937640    -0.80900
O5          O  0.98344171  0.02111971  0.33588311    -0.80700
O6          O  0.94894512  0.04472777  0.27037856    -0.79300
Zn7        Zn  0.99977515  0.03545628  0.22145405     1.55700
O8          O  0.02436625  0.01879326  0.33237656    -0.80700
Cd9        Cd  0.97123574  0.01566743  0.28657478     1.59700
Cd10       Cd  0.99759040  0.97691877  0.23368887     1.59600
O11         O  0.95007795  0.98425574  0.28925914    -0.80700
O12         O  0.00011178  0.01027069  0.25558277    -1.91200
Cd13       Cd  0.03184717  0.01325821  0.28130080     1.59900
O14         O  0.96700963  0.95795247  0.25261220    -0.80700
O15         O  0.05444543  0.04139655  0.26261851    -0.79300
C16         C  0.99576460  0.99961277  0.16211565     0.83200
C17         C  0.95241339  0.05952525  0.24565007     0.82900
O18         O  0.02991912  0.05624733  0.22243847    -0.78300
C19         C  0.00464417  0.02085392  0.34979693     0.83700
O20         O  0.99725513  0.02083630  0.17533185    -0.78400
C21         C  0.95075816  0.96325467  0.27500484     0.83800
C22         C  0.04682520  0.95958811  0.26555923     0.84100
O23         O  0.02797386  0.95569850  0.24693145    -0.80800
O24         O  0.97332570  0.95623851  0.78386062    -0.78300
C25         C  0.05077227  0.95725188  0.76665799     0.82700
O26         O  0.00124165  0.03467814  0.82849231    -0.79400
O27         O  0.05070751  0.03187543  0.72161981    -0.80900
O28         O  0.97932148  0.99320933  0.67550060    -0.80700
O29         O  0.94884986  0.97033425  0.74320307    -0.79300
Zn30       Zn  0.00163012  0.97919273  0.78752657     1.55700
O31         O  0.02032746  0.99235734  0.67439720    -0.80700
Cd32       Cd  0.97054839  0.99929623  0.72602097     1.59700
Cd33       Cd  0.00160657  0.03797832  0.77485671     1.59600
O34         O  0.94968440  0.03055777  0.72790690    -0.80700
O35         O  0.00119550  0.00424283  0.75334918    -1.91200
Cd36       Cd  0.03085814  0.99965811  0.72382915     1.59900
O37         O  0.97041579  0.05777142  0.75922140    -0.80700
O38         O  0.05364802  0.97150600  0.74120220    -0.79300
C39         C  0.99990867  0.01523496  0.84666988     0.83200
C40         C  0.95373206  0.95475836  0.76639363     0.82900
O41         O  0.03193855  0.95885790  0.78571945    -0.78300
C42         C  0.99958851  0.99111854  0.65936718     0.83700
O43         O  0.99981652  0.99406969  0.83318312    -0.78400
C44         C  0.95183817  0.05180847  0.74104202     0.83800
C45         C  0.04932916  0.05276039  0.73611895     0.84100
O46         O  0.03253045  0.05766433  0.75796463    -0.80800
O47         O  0.29948219  0.28382971  0.08449431    -0.78300
C48         C  0.30899352  0.20637623  0.10793313     0.82700
O49         O  0.22527965  0.24675864  0.04478871    -0.79400
O50         O  0.23335163  0.19771821  0.14797536    -0.80900
O51         O  0.26582098  0.27360456  0.19631532    -0.80700
O52         O  0.28440237  0.30630876  0.12672396    -0.79300
Zn53       Zn  0.28129126  0.25198269  0.08477083     1.55700
O54         O  0.26660880  0.23269881  0.19896723    -0.80700
Cd55       Cd  0.25837982  0.28168571  0.14611728     1.59700
Cd56       Cd  0.22242193  0.24772782  0.09804809     1.59600
O57         O  0.22451265  0.29878840  0.14723197    -0.80700
O58         O  0.25621168  0.25059781  0.11917829    -1.91200
Cd59       Cd  0.26310148  0.22134986  0.14868946     1.59900
O60         O  0.20006930  0.27708286  0.11299451    -0.80700
O61         O  0.29432531  0.20183348  0.13258084    -0.79300
C62         C  0.24469996  0.24676128  0.02641992     0.83200
C63         C  0.29910294  0.30361975  0.10162523     0.82900
O64         O  0.30593239  0.22503013  0.08899968    -0.78300
C65         C  0.26720463  0.25372163  0.21328330     0.83700
O66         O  0.26600007  0.24837146  0.03951162    -0.78400
C67         C  0.20366524  0.29501215  0.13335615     0.83800
C68         C  0.21193603  0.19825532  0.13474611     0.84100
O69         O  0.20509187  0.21578284  0.11531579    -0.80800
O70         O  0.30123843  0.28110769  0.59112371    -0.78300
C71         C  0.30337705  0.20052813  0.60219258     0.82700
O72         O  0.22538064  0.25054247  0.54371328    -0.79400
O73         O  0.22707739  0.19738515  0.64510106    -0.80900
O74         O  0.26345262  0.26579877  0.70015072    -0.80700
O75         O  0.28579329  0.30126546  0.63543586    -0.79300
Zn76       Zn  0.28087217  0.25059208  0.58602413     1.55700
O77         O  0.26543914  0.22504094  0.69638073    -0.80700
Cd78       Cd  0.25791661  0.27738885  0.65070534     1.59700
Cd79       Cd  0.22153818  0.24890806  0.59679384     1.59600
O80         O  0.22535192  0.29676983  0.65198726    -0.80700
O81         O  0.25492386  0.24857396  0.61941875    -1.91200
Cd82       Cd  0.25941115  0.21741035  0.64558019     1.59900
O83         O  0.20097632  0.27906093  0.61351664    -0.80700
O84         O  0.28815949  0.19605658  0.62620851    -0.79300
C85         C  0.24508445  0.25218661  0.52608395     0.83200
C86         C  0.30105136  0.29967670  0.61079287     0.82900
O87         O  0.30270832  0.22071969  0.58591877    -0.78300
C88         C  0.26549848  0.24472725  0.71390644     0.83700
O89         O  0.26614898  0.25243838  0.54007722    -0.78400
C90         C  0.20496400  0.29546046  0.63610846     0.83800
C91         C  0.20615189  0.19986259  0.63082939     0.84100
O92         O  0.20151327  0.21775228  0.61081055    -0.80800
O93         O  0.19533626  0.72067166  0.34511645    -0.78300
C94         C  0.19441213  0.79913423  0.35968821     0.82700
O95         O  0.27394763  0.74777886  0.30023236    -0.79400
O96         O  0.26886637  0.80305060  0.39828062    -0.80900
O97         O  0.23326390  0.73154686  0.45417523    -0.80700
O98         O  0.21061637  0.69770024  0.38682074    -0.79300
Zn99       Zn  0.21741812  0.74996273  0.34035865     1.55700
O100        O  0.23427014  0.77244278  0.45229651    -0.80700
Cd101      Cd  0.23869598  0.72086448  0.40408664     1.59700
Cd102      Cd  0.27705272  0.75028778  0.35355315     1.59600
O103        O  0.27101915  0.70130388  0.40635474    -0.80700
O104        O  0.24294888  0.75046752  0.37441783    -1.91200
Cd105      Cd  0.23822552  0.78104466  0.40157538     1.59900
O106        O  0.29779626  0.72085489  0.37296857    -0.80700
O107        O  0.20863328  0.80194207  0.38517494    -0.79300
C108        C  0.25453161  0.74660682  0.28189977     0.83200
C109        C  0.19494536  0.70128085  0.36313742     0.82900
O110        O  0.19614732  0.78036225  0.34052581    -0.78300
C111        C  0.23312661  0.75240311  0.46890838     0.83700
O112        O  0.23312282  0.74730906  0.29497692    -0.78400
C113        C  0.29256053  0.70370048  0.39398887     0.83800
C114        C  0.29000887  0.80118661  0.38450771     0.84100
O115        O  0.29604769  0.78247235  0.36671115    -0.80800
O116        O  0.19930525  0.71755639  0.83875853    -0.78300
C117        C  0.19492373  0.79582717  0.86369259     0.82700
O118        O  0.27572554  0.74986233  0.80031108    -0.79400
O119        O  0.26849430  0.79886119  0.90645353    -0.80900
O120        O  0.23308366  0.72350162  0.95125776    -0.80700
O121        O  0.21422661  0.69329514  0.87920871    -0.79300
Zn122      Zn  0.21919177  0.74852847  0.83975102     1.55700
O123        O  0.23345166  0.76428640  0.95542734    -0.80700
Cd124      Cd  0.24062296  0.71656588  0.90044759     1.59700
Cd125      Cd  0.27782789  0.75048975  0.85365830     1.59600
O126        O  0.27413941  0.69881985  0.90133365    -0.80700
O127        O  0.24395421  0.74799698  0.87461126    -1.91200
Cd128      Cd  0.23806124  0.77634104  0.90585742     1.59900
O129        O  0.29989789  0.72182701  0.87077652    -0.80700
O130        O  0.20844582  0.79772338  0.89010446    -0.79300
C131        C  0.25648537  0.75064676  0.78169944     0.83200
C132        C  0.19952625  0.69712247  0.85443297     0.82900
O133        O  0.19718211  0.77787590  0.84321037    -0.78300
C134        C  0.23220267  0.74308121  0.96902054     0.83700
O135        O  0.23505170  0.75064147  0.79460296    -0.78400
C136        C  0.29558509  0.70326844  0.88967836     0.83800
C137        C  0.28919219  0.79918505  0.89117694     0.84100
O138        O  0.29517787  0.78266754  0.86960776    -0.80800
O139        O  0.52870554  0.95216595  0.94887789    -0.78300
C140        C  0.45221966  0.94711148  0.97254797     0.82700
O141        O  0.49588901  0.02958060  0.91071606    -0.79400
O142        O  0.44765132  0.02184100  0.01500750    -0.80900
O143        O  0.52198996  0.98916100  0.06263521    -0.80700
O144        O  0.55182343  0.96332618  0.99279298    -0.79300
Zn145      Zn  0.49874896  0.97306095  0.94882405     1.55700
O146        O  0.48098414  0.98761385  0.06443079    -0.80700
Cd147      Cd  0.53040787  0.99275855  0.01109701     1.59700
Cd148      Cd  0.49732140  0.03111739  0.96420811     1.59600
O149        O  0.55094506  0.02468280  0.00853465    -0.80700
O150        O  0.49916117  0.99710186  0.98442821    -1.91200
Cd151      Cd  0.46984369  0.99113662  0.01425995     1.59900
O152        O  0.52809571  0.05112357  0.97888400    -0.80700
O153        O  0.44895844  0.96096834  0.99838660    -0.79300
C154        C  0.49569464  0.01065712  0.89150682     0.83200
C155        C  0.54788512  0.94956883  0.96698550     0.82900
O156        O  0.47029980  0.95028548  0.95249906    -0.78300
C157        C  0.50181951  0.98827855  0.07934543     0.83700
O158        O  0.49665191  0.98914003  0.90382875    -0.78400
C159        C  0.54728532  0.04603425  0.99624713     0.83800
C160        C  0.44921023  0.04357255  0.00324204     0.84100
O161        O  0.46675978  0.05000068  0.98346584    -0.80800
O162        O  0.53128785  0.94836743  0.45797524    -0.78300
C163        C  0.45319847  0.95154987  0.46257226     0.82700
O164        O  0.50785892  0.02860492  0.41034792    -0.79400
O165        O  0.45043294  0.02553034  0.50675587    -0.80900
O166        O  0.51768047  0.98904642  0.56573956    -0.80700
O167        O  0.55193309  0.96128646  0.50338343    -0.79300
Zn168      Zn  0.50439445  0.97259569  0.44944490     1.55700
O169        O  0.47679985  0.98816628  0.56065720    -0.80700
Cd170      Cd  0.53077240  0.99192745  0.51644563     1.59700
Cd171      Cd  0.50454161  0.03100042  0.46366707     1.59600
O172        O  0.55316405  0.02242155  0.51763878    -0.80700
O173        O  0.50254397  0.99723664  0.48439990    -1.91200
Cd174      Cd  0.47045205  0.99327734  0.50908028     1.59900
O175        O  0.53495001  0.04961973  0.48356857    -0.80700
O176        O  0.44905538  0.96499216  0.48860330    -0.79300
C177        C  0.51125590  0.00958151  0.39188831     0.83200
C178        C  0.54883170  0.94601969  0.47911826     0.82900
O179        O  0.47315529  0.95341745  0.44580148    -0.78300
C180        C  0.49622949  0.98826427  0.57888643     0.83700
O181        O  0.51099058  0.98808033  0.40442227    -0.78400
C182        C  0.55197231  0.04375011  0.50449808     0.83800
C183        C  0.45425055  0.04680864  0.49436553     0.84100
O184        O  0.47359531  0.05165684  0.47709075    -0.80800
O185        O  0.80324625  0.77703232  0.33827575    -0.78300
C186        C  0.79910832  0.69827412  0.35180628     0.82700
O187        O  0.72100262  0.74918047  0.30183483    -0.79400
O188        O  0.72915857  0.70127470  0.40867190    -0.80900
O189        O  0.76835406  0.77010490  0.45184411    -0.80700
O190        O  0.79237079  0.79992128  0.38254671    -0.79300
Zn191      Zn  0.77909657  0.74928683  0.33668174     1.55700
O192        O  0.77213119  0.72937345  0.45102238    -0.80700
Cd193      Cd  0.76266732  0.77958503  0.40131325     1.59700
Cd194      Cd  0.72114836  0.74951980  0.35554426     1.59600
O195        O  0.73190309  0.80153604  0.40136632    -0.80700
O196        O  0.75604067  0.74956041  0.37361871    -1.91200
Cd197      Cd  0.76192135  0.71974597  0.40207982     1.59900
O198        O  0.70310411  0.78114980  0.37242918    -0.80700
O199        O  0.78739020  0.69594155  0.37981198    -0.79300
C200        C  0.73947475  0.75161372  0.28193880     0.83200
C201        C  0.80624910  0.79590024  0.35687977     0.82900
O202        O  0.79729584  0.71761641  0.33391226    -0.78300
C203        C  0.77185037  0.74972724  0.46703921     0.83700
O204        O  0.76130176  0.75244514  0.29334257    -0.78400
C205        C  0.71000000  0.79958781  0.39012950     0.83800
C206        C  0.70731500  0.70326345  0.39721401     0.84100
O207        O  0.70144414  0.71977320  0.37556885    -0.80800
O208        O  0.80401806  0.77851262  0.84317298    -0.78300
C209        C  0.80513166  0.69983148  0.86721142     0.82700
O210        O  0.72877357  0.74837428  0.79799754    -0.79400
O211        O  0.72689615  0.70091715  0.90531490    -0.80900
O212        O  0.76480395  0.77131610  0.95273733    -0.80700
O213        O  0.78917779  0.80146096  0.88506736    -0.79300
Zn214      Zn  0.78329591  0.74812541  0.84239802     1.55700
O215        O  0.76402186  0.73048835  0.95563186    -0.80700
Cd216      Cd  0.76078243  0.77947554  0.90207653     1.59700
Cd217      Cd  0.72358857  0.74962347  0.85124659     1.59600
O218        O  0.72980585  0.80065913  0.89918911    -0.80700
O219        O  0.75673517  0.74898884  0.87477327    -1.91200
Cd220      Cd  0.75984955  0.71956749  0.90513819     1.59900
O221        O  0.70403096  0.78162583  0.86398623    -0.80700
O222        O  0.78858235  0.69615811  0.88979184    -0.79300
C223        C  0.74885070  0.74705453  0.78100322     0.83200
C224        C  0.80416872  0.79819001  0.86056055     0.82900
O225        O  0.80516863  0.71910132  0.84897361    -0.78300
C226        C  0.76482201  0.75151129  0.96991095     0.83700
O227        O  0.76964904  0.74632580  0.79574290    -0.78400
C228        C  0.70929026  0.79951472  0.88373209     0.83800
C229        C  0.70595325  0.70358441  0.89117063     0.84100
O230        O  0.70197310  0.72042143  0.86914594    -0.80800
O231        O  0.69562781  0.22019216  0.09360734    -0.78300
C232        C  0.69446823  0.29866123  0.11717539     0.82700
O233        O  0.77475087  0.25003968  0.05919979    -0.79400
O234        O  0.76705094  0.29917370  0.16313442    -0.80900
O235        O  0.72716425  0.22622423  0.20861507    -0.80700
O236        O  0.70669191  0.19682986  0.13720315    -0.79300
Zn237      Zn  0.71718363  0.24996437  0.09598770     1.55700
O238        O  0.72925350  0.26701884  0.21199913    -0.80700
Cd239      Cd  0.73457007  0.21818693  0.15824046     1.59700
Cd240      Cd  0.77553549  0.24906378  0.11295555     1.59600
O241        O  0.76601577  0.19724558  0.15923848    -0.80700
O242        O  0.74089002  0.24893658  0.13206866    -1.91200
Cd243      Cd  0.73550809  0.27819286  0.16213736     1.59900
O244        O  0.79439342  0.21791313  0.12985377    -0.80700
O245        O  0.70748862  0.30103940  0.14401284    -0.79300
C246        C  0.75592808  0.25183477  0.03984747     0.83200
C247        C  0.69349992  0.20057622  0.11086705     0.82900
O248        O  0.69644552  0.27985599  0.09825305    -0.78300
C249        C  0.72683157  0.24600624  0.22594722     0.83700
O250        O  0.73427754  0.25203138  0.05195781    -0.78400
C251        C  0.78787240  0.19951714  0.14792083     0.83800
C252        C  0.78855164  0.29762280  0.15030235     0.84100
O253        O  0.79476354  0.27981390  0.13090407    -0.80800
O254        O  0.69784846  0.21578308  0.60365727    -0.78300
C255        C  0.69403503  0.29479958  0.61411424     0.82700
O256        O  0.77340963  0.24648269  0.55512615    -0.79400
O257        O  0.76875306  0.30090557  0.65387297    -0.80900
O258        O  0.73648563  0.23036452  0.71232788    -0.80700
O259        O  0.71299125  0.19459804  0.64711413    -0.79300
Zn260      Zn  0.71817631  0.24573099  0.59812366     1.55700
O261        O  0.73384236  0.27115193  0.70871548    -0.80700
Cd262      Cd  0.74112555  0.21869607  0.66232052     1.59700
Cd263      Cd  0.77706103  0.24855012  0.60843323     1.59600
O264        O  0.77416867  0.19990270  0.66245815    -0.80700
O265        O  0.74373433  0.24791905  0.63145729    -1.91200
Cd266      Cd  0.73798732  0.27896864  0.65748322     1.59900
O267        O  0.79875092  0.21970900  0.62620452    -0.80700
O268        O  0.70817268  0.29934451  0.63925439    -0.79300
C269        C  0.75357813  0.24442602  0.53790156     0.83200
C270        C  0.69763419  0.19695209  0.62270118     0.82900
O271        O  0.69610618  0.27500154  0.59726446    -0.78300
C272        C  0.73451912  0.25145332  0.72622622     0.83700
O273        O  0.73271345  0.24376304  0.55238598    -0.78400
C274        C  0.79496632  0.20263307  0.64785430     0.83800
C275        C  0.78981790  0.29906678  0.63979206     0.84100
O276        O  0.79575294  0.28054794  0.62162624    -0.80800
O277        O  0.47208239  0.45823976  0.03181536    -0.78300
C278        C  0.55041889  0.46082407  0.02447617     0.82700
O279        O  0.49920766  0.53740933  0.07991784    -0.79400
O280        O  0.55378277  0.53322033  0.98280219    -0.80900
O281        O  0.48397875  0.50099230  0.92433591    -0.80700
O282        O  0.45120870  0.47143738  0.98682639    -0.79300
Zn283      Zn  0.49966500  0.48196623  0.03881522     1.55700
O284        O  0.52495396  0.49890079  0.92694355    -0.80700
Cd285      Cd  0.47237861  0.50211959  0.97435271     1.59700
Cd286      Cd  0.50031170  0.54079684  0.02625109     1.59600
O287        O  0.44993688  0.53212732  0.97705390    -0.80700
O288        O  0.50129509  0.50698837  0.00482839    -1.91200
Cd289      Cd  0.53257252  0.50209727  0.97857744     1.59900
O290        O  0.46921630  0.56003731  0.00889090    -0.80700
O291        O  0.55406615  0.47323975  0.99739101    -0.79300
C292        C  0.49729050  0.51793385  0.09792994     0.83200
C293        C  0.45426792  0.45617400  0.01105220     0.82900
O294        O  0.53065577  0.46304419  0.04144025    -0.78300
C295        C  0.50498790  0.50013956  0.90990631     0.83700
O296        O  0.49630251  0.49687393  0.08420164    -0.78400
C297        C  0.45119331  0.55347756  0.99003724     0.83800
C298        C  0.55100543  0.55463996  0.99521808     0.84100
O299        O  0.53167131  0.56075641  0.01177514    -0.80800
O300        O  0.46696390  0.46279082  0.54025909    -0.78300
C301        C  0.54598741  0.45706176  0.52612243     0.82700
O302        O  0.49976152  0.54077748  0.57777826    -0.79400
O303        O  0.55176336  0.52961821  0.47612598    -0.80900
O304        O  0.48038778  0.49618005  0.42603754    -0.80700
O305        O  0.44686996  0.47399286  0.49359920    -0.79300
Zn306      Zn  0.49754382  0.48314616  0.54172591     1.55700
O307        O  0.52119615  0.49191130  0.42749396    -0.80700
Cd308      Cd  0.46999702  0.50190198  0.47598936     1.59700
Cd309      Cd  0.50053112  0.54111204  0.52401335     1.59600
O310        O  0.45062828  0.53416733  0.47336812    -0.80700
O311        O  0.49966198  0.50639296  0.50525183    -1.91200
Cd312      Cd  0.53008982  0.49854601  0.47819027     1.59900
O313        O  0.47071079  0.56163205  0.50499429    -0.80700
O314        O  0.55059257  0.46953580  0.49931082    -0.79300
C315        C  0.49872865  0.52210194  0.59741369     0.83200
C316        C  0.44867609  0.46073363  0.52028645     0.82900
O317        O  0.52648862  0.46075150  0.54327290    -0.78300
C318        C  0.50098287  0.49316833  0.41106090     0.83700
O319        O  0.49765447  0.50049937  0.58550348    -0.78400
C320        C  0.45322803  0.55589570  0.48470435     0.83800
C321        C  0.55033804  0.55147484  0.48758045     0.84100
O322        O  0.53263198  0.55844980  0.50678379    -0.80800
O323        O  0.03202428  0.53882471  0.28169281    -0.78300
C324        C  0.95276666  0.54236957  0.26673718     0.82700
O325        O  0.00008166  0.46298454  0.32609346    -0.79400
O326        O  0.94807408  0.46723450  0.22497583    -0.80900
O327        O  0.01950319  0.50229603  0.17101717    -0.80700
O328        O  0.05407578  0.52524046  0.23801686    -0.79300
Zn329      Zn  0.00170980  0.51855994  0.28471606     1.55700
O330        O  0.97845559  0.50375054  0.17343344    -0.80700
Cd331      Cd  0.03042959  0.49708565  0.22110675     1.59700
Cd332      Cd  0.99993370  0.45989864  0.27270756     1.59600
O333        O  0.04980473  0.46441973  0.22053472    -0.80700
O334        O  0.00047807  0.49340828  0.25073608    -1.91200
Cd335      Cd  0.96953241  0.49854912  0.22397295     1.59900
O336        O  0.03016104  0.43931805  0.25626654    -0.80700
O337        O  0.94828335  0.52767747  0.24222660    -0.79300
C338        C  0.00083736  0.48252015  0.34405164     0.83200
C339        C  0.05121916  0.53980865  0.26323861     0.82900
O340        O  0.97260216  0.54079673  0.28369994    -0.78300
C341        C  0.99852828  0.50383615  0.15656203     0.83700
O342        O  0.00166599  0.50355511  0.33027262    -0.78400
C343        C  0.04752138  0.44363746  0.23510863     0.83800
C344        C  0.95028980  0.44606958  0.23842807     0.84100
O345        O  0.96861170  0.44064234  0.25735897    -0.80800
O346        O  0.02923579  0.53648998  0.78750343    -0.78300
C347        C  0.95018782  0.54016186  0.76612849     0.82700
O348        O  0.99864903  0.45984618  0.82531283    -0.79400
O349        O  0.94872789  0.46563722  0.72201743    -0.80900
O350        O  0.02033383  0.50427799  0.67328152    -0.80700
O351        O  0.05199127  0.52518655  0.74322744    -0.79300
Zn352      Zn  0.99866705  0.51642512  0.78655779     1.55700
O353        O  0.97927380  0.50286107  0.67231572    -0.80700
Cd354      Cd  0.02962426  0.49739756  0.72346546     1.59700
Cd355      Cd  0.99922942  0.45815611  0.77184118     1.59600
O356        O  0.05011192  0.46543607  0.72246983    -0.80700
O357        O  0.99915730  0.49219037  0.75130009    -1.91200
Cd358      Cd  0.96912994  0.49736636  0.72266853     1.59900
O359        O  0.03049048  0.43895498  0.75619969    -0.80700
O360        O  0.94664200  0.52581579  0.74088287    -0.79300
C361        C  0.99731301  0.47895753  0.84403548     0.83200
C362        C  0.04876152  0.53826191  0.76983595     0.82900
O363        O  0.96952418  0.53854347  0.78416736    -0.78300
C364        C  0.99997183  0.50469607  0.65714866     0.83700
O365        O  0.99689904  0.50030916  0.83123029    -0.78400
C366        C  0.04827829  0.44434199  0.73625833     0.83800
C367        C  0.95089845  0.44421138  0.73460586     0.84100
O368        O  0.96873446  0.43851662  0.75427945    -0.80800
C369        C  0.00041941  0.48169008  0.38178613    -0.03000
C370        C  0.99757662  0.45968275  0.39997472    -0.05600
C371        C  0.99624315  0.45999815  0.43571279    -0.20700
C372        C  0.99803210  0.48222774  0.45372448     0.25000
C373        C  0.00072448  0.50413483  0.43538882    -0.18300
C374        C  0.00203747  0.50384335  0.40004263    -0.08200
C375        C  0.99598982  0.48254611  0.49144872    -0.18500
C376        C  0.00684400  0.50001099  0.51054241    -0.23300
C377        C  0.00420732  0.50174000  0.54801629     0.27100
C378        C  0.02333063  0.51230234  0.56696560    -0.20100
C379        C  0.02167883  0.51401037  0.60240361    -0.09700
C380        C  0.00055725  0.50573090  0.61951746    -0.10300
C381        C  0.98091987  0.49616561  0.60038041    -0.03200
C382        C  0.98276225  0.49406313  0.56495872    -0.18300
H383        H  0.99610397  0.44236045  0.38664562     0.10800
H384        H  0.99386956  0.44289086  0.44932212     0.10800
H385        H  0.00121677  0.52170870  0.44816595     0.10500
H386        H  0.00399262  0.52123561  0.38701700     0.11600
H387        H  0.98585593  0.46783293  0.50370999     0.11700
H388        H  0.01910197  0.51311732  0.49848249     0.13600
H389        H  0.03986040  0.51871871  0.55436763     0.10100
H390        H  0.03707063  0.52150759  0.61646390     0.12200
H391        H  0.96444273  0.48954525  0.61288654     0.08800
H392        H  0.96737376  0.48656419  0.55093065     0.11600
C393        C  0.99717330  0.50399414  0.11894168    -0.03000
C394        C  0.97476372  0.50900033  0.10257322    -0.05600
C395        C  0.97246267  0.50588540  0.06745061    -0.20700
C396        C  0.99235172  0.49738650  0.04795701     0.25000
C397        C  0.01508411  0.49323596  0.06403691    -0.18300
C398        C  0.01745748  0.49654659  0.09921752    -0.08200
C399        C  0.98879400  0.49417872  0.01081158    -0.18500
C400        C  0.00283226  0.47962743  0.99094924    -0.23300
C401        C  0.99962617  0.47847366  0.95339651     0.27100
C402        C  0.00769051  0.45777587  0.93510495    -0.20100
C403        C  0.00601863  0.45711597  0.89941281    -0.09700
C404        C  0.99656965  0.47735040  0.88159692    -0.10300
C405        C  0.98817150  0.49778024  0.90007001    -0.03200
C406        C  0.98984206  0.49844449  0.93534974    -0.18300
H407        H  0.95881059  0.51483400  0.11701027     0.10800
H408        H  0.95488207  0.50963385  0.05555753     0.10800
H409        H  0.03105994  0.48751992  0.04962709     0.10500
H410        H  0.03496913  0.49251879  0.11109836     0.11600
H411        H  0.97323941  0.50371885  0.99967452     0.11700
H412        H  0.01680807  0.46803347  0.00234600     0.13600
H413        H  0.01555385  0.44225721  0.94842471     0.10100
H414        H  0.01287930  0.44126069  0.88577103     0.12200
H415        H  0.98084799  0.51373297  0.88713545     0.08800
H416        H  0.98427088  0.51511857  0.94811789     0.11600
C417        C  0.49906004  0.52446607  0.63502023    -0.03000
C418        C  0.49484135  0.54682479  0.65185816    -0.05600
C419        C  0.49444845  0.54771386  0.68766113    -0.20700
C420        C  0.49874540  0.52640871  0.70696504     0.25000
C421        C  0.50280533  0.50416350  0.68994892    -0.18300
C422        C  0.50307191  0.50324219  0.65461627    -0.08200
C423        C  0.49788282  0.52709672  0.74474914    -0.18500
C424        C  0.51155890  0.51169897  0.76380203    -0.23300
C425        C  0.50949258  0.50942463  0.80129067     0.27100
C426        C  0.52965833  0.50028367  0.81962027    -0.20100
C427        C  0.52814831  0.49685072  0.85483342    -0.09700
C428        C  0.50620756  0.50201053  0.87233479    -0.10300
C429        C  0.48581835  0.51067409  0.85383398    -0.03200
C430        C  0.48744780  0.51441767  0.81868098    -0.18300
H431        H  0.49150208  0.56341768  0.63745290     0.10800
H432        H  0.49092797  0.56502139  0.70029500     0.10800
H433        H  0.50525240  0.48720545  0.70385705     0.10500
H434        H  0.50630302  0.48563052  0.64265755     0.11600
H435        H  0.48596956  0.54047583  0.75691071     0.11700
H436        H  0.52525810  0.50024812  0.75140524     0.13600
H437        H  0.54672338  0.49595787  0.80665832     0.10100
H438        H  0.54416794  0.49019603  0.86835109     0.12200
H439        H  0.46867588  0.51495257  0.86660406     0.08800
H440        H  0.47131382  0.52076210  0.80517062     0.11600
C441        C  0.49694023  0.51876660  0.13575643    -0.03000
C442        C  0.49756959  0.54088920  0.15410165    -0.05600
C443        C  0.49783984  0.54062785  0.18991371    -0.20700
C444        C  0.49789938  0.51830108  0.20787837     0.25000
C445        C  0.49703181  0.49629062  0.18943020    -0.18300
C446        C  0.49660463  0.49653028  0.15400072    -0.08200
C447        C  0.49750044  0.51815196  0.24575832    -0.18500
C448        C  0.50692127  0.49950314  0.26420729    -0.23300
C449        C  0.50489872  0.49780156  0.30183685     0.27100
C450        C  0.52298528  0.48494964  0.32008437    -0.20100
C451        C  0.52152861  0.48284965  0.35556815    -0.16100
C452        C  0.50153791  0.49296925  0.37336739    -0.10300
C453        C  0.48296624  0.50506187  0.35493241    -0.03200
C454        C  0.48468089  0.50758217  0.31956982    -0.18300
H455        H  0.49784750  0.55829520  0.14085466     0.10800
H456        H  0.49819356  0.55786192  0.20361890     0.10800
H457        H  0.49613541  0.47875524  0.20225536     0.10500
H458        H  0.49601608  0.47905358  0.14091992     0.11600
H459        H  0.48954510  0.53388338  0.25867365     0.11700
H460        H  0.51714849  0.48508315  0.25139751     0.13600
H461        H  0.53853756  0.47691447  0.30689156     0.10100
H462        H  0.53610268  0.47346728  0.36910478     0.12200
H463        H  0.46741598  0.51322809  0.36797127     0.08800
H464        H  0.47003721  0.51693835  0.30617539     0.11600
C465        C  0.93246330  0.42542792  0.72481134    -0.03000
C466        C  0.93388717  0.40126117  0.73708287    -0.05600
C467        C  0.91726713  0.38341563  0.72571673    -0.20700
C468        C  0.89882545  0.38935737  0.70205534     0.25000
C469        C  0.89742462  0.41355034  0.68984015    -0.18300
C470        C  0.91392003  0.43133657  0.70122369    -0.08200
C471        C  0.88196732  0.36979272  0.68970368    -0.18500
C472        C  0.85956787  0.37451073  0.67655126    -0.23300
C473        C  0.84230576  0.35511817  0.66510942     0.27100
C474        C  0.81698584  0.35989341  0.66657334    -0.20100
C475        C  0.79999763  0.34188295  0.65744028    -0.09700
C476        C  0.80796574  0.31879901  0.64595935    -0.10300
C477        C  0.83334689  0.31437032  0.64285229    -0.03200
C478        C  0.85039578  0.33233652  0.65247584    -0.18300
H479        H  0.94803416  0.39604703  0.75507862     0.10800
H480        H  0.91887017  0.36487733  0.73535306     0.10800
H481        H  0.88409647  0.41878419  0.67075462     0.10500
H482        H  0.91242798  0.44967163  0.69085071     0.11600
H483        H  0.88776617  0.35089920  0.69306927     0.11700
H484        H  0.85271377  0.39319100  0.67630188     0.13600
H485        H  0.81029624  0.37741760  0.67571552     0.10100
H486        H  0.78056347  0.34593604  0.65981631     0.12200
H487        H  0.84002246  0.29677775  0.63398552     0.08800
H488        H  0.86981499  0.32834997  0.64997060     0.11600
C489        C  0.67538952  0.31301654  0.60292118    -0.03000
C490        C  0.66296501  0.30955791  0.57184875    -0.05600
C491        C  0.64686971  0.32735587  0.55936108    -0.20700
C492        C  0.64241749  0.34893939  0.57773925     0.25000
C493        C  0.65440451  0.35229420  0.60923848    -0.18300
C494        C  0.67077045  0.33451351  0.62164577    -0.08200
C495        C  0.62611145  0.36786375  0.56231397    -0.18500
C496        C  0.61354276  0.38452755  0.58066880    -0.23300
C497        C  0.59647182  0.40271844  0.56520513     0.27100
C498        C  0.57660278  0.41106904  0.58474489    -0.20100
C499        C  0.56023338  0.42837255  0.57167796    -0.09700
C500        C  0.56349426  0.43819253  0.53880216    -0.10300
C501        C  0.58360220  0.43009682  0.51923308    -0.03200
C502        C  0.59990233  0.41243252  0.53224770    -0.18300
H503        H  0.66612428  0.29330397  0.55659860     0.10800
H504        H  0.63797451  0.32430974  0.53504085     0.10800
H505        H  0.65186093  0.36893191  0.62382768     0.10500
H506        H  0.68012980  0.33780114  0.64555268     0.11600
H507        H  0.62334470  0.36711002  0.53494111     0.11700
H508        H  0.61440224  0.38383641  0.60827657     0.13600
H509        H  0.57362309  0.40404994  0.61023540     0.10100
H510        H  0.54510658  0.43428168  0.58767793     0.12200
H511        H  0.58673804  0.43741027  0.49395871     0.08800
H512        H  0.61541070  0.40683301  0.51678420     0.11600
C513        C  0.73446369  0.25337545  0.76386553    -0.03000
C514        C  0.72750432  0.27536426  0.77985414    -0.05600
C515        C  0.73001413  0.27815602  0.81506127    -0.20700
C516        C  0.73993569  0.25924255  0.83501799     0.25000
C517        C  0.74620718  0.23693192  0.81922706    -0.18300
C518        C  0.74345191  0.23403685  0.78401036    -0.08200
C519        C  0.74232370  0.26314609  0.87231762    -0.18500
C520        C  0.75799389  0.25056585  0.89245933    -0.23300
C521        C  0.75847472  0.25322829  0.93023035     0.27100
C522        C  0.77908099  0.24507035  0.94877262    -0.20100
C523        C  0.77903406  0.24544526  0.98457462    -0.09700
C524        C  0.75819396  0.25372121  0.00233128    -0.10300
C525        C  0.73794312  0.26247288  0.98367203    -0.03200
C526        C  0.73798101  0.26210477  0.94825527    -0.18300
H527        H  0.72042378  0.29057084  0.76507899     0.10800
H528        H  0.72461366  0.29536187  0.82667402     0.10800
H529        H  0.75307412  0.22162246  0.83392049     0.10500
H530        H  0.74900168  0.21687184  0.77244274     0.11600
H531        H  0.73108773  0.27759189  0.88322086     0.11700
H532        H  0.77097783  0.23785802  0.88105509     0.13600
H533        H  0.79505200  0.23795906  0.93552670     0.10100
H534        H  0.79483825  0.23847804  0.99826940     0.12200
H535        H  0.72157460  0.26907179  0.99650927     0.08800
H536        H  0.72139177  0.26785787  0.93539235     0.11600
C537        C  0.75374061  0.24325842  0.50020289    -0.03000
C538        C  0.77459128  0.24937108  0.48083188    -0.05600
C539        C  0.77308117  0.25043719  0.44515101    -0.20700
C540        C  0.75086181  0.24509503  0.42836723     0.25000
C541        C  0.73023448  0.23856133  0.44785615    -0.18300
C542        C  0.73171145  0.23752549  0.48316833    -0.08200
C543        C  0.74902850  0.24791729  0.39083648    -0.18500
C544        C  0.73247888  0.23550277  0.37198224    -0.23300
C545        C  0.72964467  0.23905206  0.33481509     0.27100
C546        C  0.72250150  0.21909559  0.31461822    -0.20100
C547        C  0.72056541  0.22157963  0.27930517    -0.09700
C548        C  0.72527248  0.24425938  0.26354890    -0.10300
C549        C  0.73105621  0.26459467  0.28407186    -0.03200
C550        C  0.73330774  0.26200460  0.31937092    -0.18300
H551        H  0.79175538  0.25401391  0.49322278     0.10800
H552        H  0.78918985  0.25571025  0.43064047     0.10800
H553        H  0.71258617  0.23508830  0.43610755     0.10500
H554        H  0.71521472  0.23277888  0.49719120     0.11600
H555        H  0.76190620  0.26022613  0.37837319     0.11700
H556        H  0.72138227  0.22128049  0.38373937     0.13600
H557        H  0.71916583  0.20133752  0.32608913     0.10100
H558        H  0.71597422  0.20557012  0.26427698     0.12200
H559        H  0.73471113  0.28233115  0.27276894     0.08800
H560        H  0.73798580  0.27793246  0.33449571     0.11600
C561        C  0.80659275  0.31714541  0.15880281    -0.03000
C562        C  0.79837448  0.33932363  0.17315124    -0.05600
C563        C  0.81507110  0.35751348  0.18269912    -0.20700
C564        C  0.84045179  0.35392035  0.17875719     0.25000
C565        C  0.84879792  0.33192740  0.16384056    -0.18300
C566        C  0.83199802  0.31375661  0.15384503    -0.08200
C567        C  0.85737983  0.37390104  0.18958744    -0.18500
C568        C  0.88081393  0.37016294  0.19953018    -0.23300
C569        C  0.89746052  0.39028702  0.21094890     0.27100
C570        C  0.91775891  0.38454147  0.23157710    -0.20100
C571        C  0.93448087  0.40272939  0.24149404    -0.09700
C572        C  0.93143234  0.42711607  0.23067680    -0.10300
C573        C  0.91091772  0.43292884  0.21038212    -0.03200
C574        C  0.89418801  0.41477428  0.20055494    -0.18300
H575        H  0.77893667  0.34267069  0.17707399     0.10800
H576        H  0.80811441  0.37436632  0.19371317     0.10800
H577        H  0.86820535  0.32881376  0.15948567     0.10500
H578        H  0.83890680  0.29693161  0.14273179     0.11600
H579        H  0.84959376  0.39217694  0.19138695     0.11700
H580        H  0.88784357  0.35155180  0.20081336     0.13600
H581        H  0.92081211  0.36583969  0.23983788     0.10100
H582        H  0.95011070  0.39755295  0.25698519     0.12200
H583        H  0.90804775  0.45146957  0.20135936     0.08800
H584        H  0.87922806  0.41994831  0.18390737     0.11600
C585        C  0.67752560  0.31840530  0.10601579    -0.03000
C586        C  0.66481830  0.31579782  0.07501052    -0.05600
C587        C  0.65079726  0.33495876  0.06191634    -0.20700
C588        C  0.64873480  0.35716116  0.07955974     0.25000
C589        C  0.66103930  0.35982334  0.11095709    -0.18300
C590        C  0.67533808  0.34058255  0.12404196    -0.08200
C591        C  0.63390430  0.37698828  0.06375921    -0.18500
C592        C  0.62272657  0.39476005  0.08169407    -0.23300
C593        C  0.60508508  0.41216983  0.06600229     0.27100
C594        C  0.58553927  0.42069438  0.08595058    -0.20100
C595        C  0.56783522  0.43620611  0.07209171    -0.09700
C596        C  0.56945062  0.44400980  0.03798377    -0.10300
C597        C  0.58942056  0.43607529  0.01809757    -0.03200
C598        C  0.60706618  0.42016548  0.03193913    -0.18300
H599        H  0.66612549  0.29906770  0.06025723     0.10800
H600        H  0.64153212  0.33240975  0.03774008     0.10800
H601        H  0.66027361  0.37688728  0.12496904     0.10500
H602        H  0.68511251  0.34327103  0.14777583     0.11600
H603        H  0.63024359  0.37552047  0.03662773     0.11700
H604        H  0.62437177  0.39496504  0.10926075     0.13600
H605        H  0.58368461  0.41495248  0.11225672     0.10100
H606        H  0.55290627  0.44225472  0.08834719     0.12200
H607        H  0.59129168  0.44200514  0.99189460     0.08800
H608        H  0.62230946  0.41438592  0.01610586     0.11600
C609        C  0.82476418  0.68154106  0.86087030    -0.03000
C610        C  0.84761779  0.68946804  0.84824141    -0.05600
C611        C  0.86556088  0.67257422  0.83842809    -0.20700
C612        C  0.86091159  0.64733573  0.84013703     0.25000
C613        C  0.83834450  0.63924546  0.85377126    -0.18300
C614        C  0.82047387  0.65625466  0.86432596    -0.08200
C615        C  0.88028598  0.63019508  0.82800248    -0.18500
C616        C  0.87547100  0.60833317  0.81340508    -0.23300
C617        C  0.89514784  0.59180644  0.80017324     0.27100
C618        C  0.88957418  0.57471113  0.77448192    -0.20100
C619        C  0.90755833  0.55839932  0.76237415    -0.09700
C620        C  0.93143795  0.55868214  0.77607329    -0.10300
C621        C  0.93697920  0.57592235  0.80162334    -0.03200
C622        C  0.91911691  0.59218742  0.81358050    -0.18300
H623        H  0.85151477  0.70884625  0.84551893     0.10800
H624        H  0.88290476  0.67927660  0.82849461     0.10800
H625        H  0.83450232  0.61986120  0.85629238     0.10500
H626        H  0.80301468  0.64966385  0.87396259     0.11600
H627        H  0.89909766  0.63682784  0.82876600     0.11700
H628        H  0.85647294  0.60285730  0.80952092     0.13600
H629        H  0.87121033  0.57390297  0.76386283     0.10100
H630        H  0.90260913  0.54521020  0.74293043     0.12200
H631        H  0.95510724  0.57657577  0.81300306     0.08800
H632        H  0.92405018  0.60448921  0.83407796     0.11600
C633        C  0.68556246  0.68728852  0.90240397    -0.03000
C634        C  0.66241174  0.68770507  0.88646341    -0.05600
C635        C  0.64300557  0.67331717  0.89900653    -0.20700
C636        C  0.64631522  0.65819124  0.92764260     0.25000
C637        C  0.66938334  0.65809769  0.94382721    -0.18300
C638        C  0.68873094  0.67228558  0.93123590    -0.08200
C639        C  0.62537671  0.64307110  0.94040884    -0.18500
C640        C  0.62867888  0.62220578  0.95828303    -0.23300
C641        C  0.60836195  0.60584137  0.96955399     0.27100
C642        C  0.61351689  0.58084835  0.97393133    -0.20100
C643        C  0.59498167  0.56445649  0.98320760    -0.09700
C644        C  0.57086661  0.57272555  0.98909994    -0.10300
C645        C  0.56584412  0.59793656  0.98637596    -0.03200
C646        C  0.58440154  0.61437253  0.97645792    -0.18300
H647        H  0.65923755  0.69926331  0.86448117     0.10800
H648        H  0.62536710  0.67393563  0.88622462     0.10800
H649        H  0.67252112  0.64751649  0.96670845     0.10500
H650        H  0.70609682  0.67189021  0.94471917     0.11600
H651        H  0.60690566  0.64847744  0.93306037     0.11700
H652        H  0.64723921  0.61560242  0.96266995     0.13600
H653        H  0.63186540  0.57383391  0.96925305     0.10100
H654        H  0.59947604  0.54516984  0.98537189     0.12200
H655        H  0.54741840  0.60480551  0.99077912     0.08800
H656        H  0.57996297  0.63364559  0.97427449     0.11600
C657        C  0.74889423  0.74705039  0.74321045    -0.03000
C658        C  0.72849748  0.75502293  0.72428922    -0.05600
C659        C  0.73005515  0.75706368  0.68870118    -0.20700
C660        C  0.75188569  0.75094278  0.67135670     0.25000
C661        C  0.77218055  0.74281869  0.69043106    -0.18300
C662        C  0.77063165  0.74079278  0.72575177    -0.08200
C663        C  0.75327708  0.75420652  0.63370943    -0.18500
C664        C  0.77009369  0.74280475  0.61393374    -0.23300
C665        C  0.77164730  0.74585807  0.57638276     0.27100
C666        C  0.78218156  0.72696271  0.55694008    -0.20100
C667        C  0.78313383  0.72858118  0.52143585    -0.09700
C668        C  0.77400415  0.74940246  0.50462285    -0.10300
C669        C  0.76458294  0.76888517  0.52416617    -0.03200
C670        C  0.76334862  0.76712840  0.55969277    -0.18300
H671        H  0.71162542  0.76029838  0.73701711     0.10800
H672        H  0.71421150  0.76362190  0.67468387     0.10800
H673        H  0.78963129  0.73869475  0.67851399     0.10500
H674        H  0.78679978  0.73474922  0.73949860     0.11600
H675        H  0.73940786  0.76571555  0.62189184     0.11700
H676        H  0.78244647  0.72946239  0.62517941     0.13600
H677        H  0.78907071  0.71055294  0.56920954     0.10100
H678        H  0.79057912  0.71331155  0.50709675     0.12200
H679        H  0.75735569  0.78515828  0.51193775     0.08800
H680        H  0.75589262  0.78242290  0.57390334     0.11600
C681        C  0.73663339  0.75332602  0.24454768    -0.03000
C682        C  0.71647674  0.74315741  0.22722416    -0.05600
C683        C  0.71640361  0.74224545  0.19143340    -0.20700
C684        C  0.73626041  0.75178220  0.17258404     0.25000
C685        C  0.75597444  0.76255261  0.19018526    -0.18300
C686        C  0.75603496  0.76345768  0.22552916    -0.08200
C687        C  0.73720273  0.74864174  0.13496664    -0.18500
C688        C  0.75100731  0.76322368  0.11486256    -0.23300
C689        C  0.75505293  0.75918224  0.07793382     0.27100
C690        C  0.76301577  0.77904750  0.05814250    -0.20100
C691        C  0.76729356  0.77624351  0.02333449    -0.09700
C692        C  0.76394712  0.75337301  0.00750061    -0.10300
C693        C  0.75698273  0.73317099  0.02754996    -0.03200
C694        C  0.75255693  0.73603010  0.06247349    -0.18300
H695        H  0.70137991  0.73504521  0.24126344     0.10800
H696        H  0.70108910  0.73364426  0.17846777     0.10800
H697        H  0.77205762  0.76934454  0.17700466     0.10500
H698        H  0.77186362  0.77146460  0.23806080     0.11600
H699        H  0.72648012  0.73390436  0.12381055     0.11700
H700        H  0.75957676  0.77940114  0.12573351     0.13600
H701        H  0.76552518  0.79696725  0.06955358     0.10100
H702        H  0.77269685  0.79217964  0.00867859     0.12200
H703        H  0.75422089  0.71531899  0.01609012     0.08800
H704        H  0.74732100  0.72009935  0.07718489     0.11600
C705        C  0.81488600  0.67817601  0.33887725    -0.03000
C706        C  0.82194700  0.67796469  0.30437946    -0.05600
C707        C  0.83682157  0.65928215  0.29152260    -0.20700
C708        C  0.84544680  0.64066160  0.31293261     0.25000
C709        C  0.83819125  0.64055992  0.34739523    -0.18300
C710        C  0.82290230  0.65910634  0.36020720    -0.08200
C711        C  0.86199221  0.62172102  0.29841139    -0.18500
C712        C  0.88058347  0.61188269  0.31632469    -0.23300
C713        C  0.89889877  0.59473684  0.30145266     0.27100
C714        C  0.92239012  0.59382508  0.31599858    -0.20100
C715        C  0.94000978  0.57740638  0.30385471    -0.09700
C716        C  0.93449085  0.56119664  0.27702968    -0.10300
C717        C  0.91102335  0.56226974  0.26207669    -0.03200
C718        C  0.89336044  0.57888496  0.27417369    -0.18300
H719        H  0.81584421  0.69221874  0.28713806     0.10800
H720        H  0.84201691  0.65964403  0.26487243     0.10800
H721        H  0.84411006  0.62606690  0.36434566     0.10500
H722        H  0.81759699  0.65868226  0.38680117     0.11600
H723        H  0.86025798  0.61762187  0.27145477     0.11700
H724        H  0.88365789  0.61804033  0.34229970     0.13600
H725        H  0.92711951  0.60582171  0.33700067     0.10100
H726        H  0.95787286  0.57712960  0.31603469     0.12200
H727        H  0.90611609  0.54989175  0.24161156     0.08800
H728        H  0.87523537  0.57873296  0.26281840     0.11600
C729        C  0.68828252  0.68637088  0.41082277    -0.03000
C730        C  0.69216087  0.67460517  0.44227179    -0.05600
C731        C  0.67415002  0.65940492  0.45634855    -0.20700
C732        C  0.65208400  0.65505720  0.43899057     0.25000
C733        C  0.64805880  0.66676727  0.40750785    -0.18300
C734        C  0.66592753  0.68245676  0.39369369    -0.08200
C735        C  0.63359878  0.63843924  0.45462936    -0.18500
C736        C  0.61983779  0.62297217  0.43599097    -0.23300
C737        C  0.60292304  0.60459337  0.45124647     0.27100
C738        C  0.59920701  0.58242666  0.43396000    -0.20100
C739        C  0.58283686  0.56492821  0.44660435    -0.09700
C740        C  0.56926709  0.56940625  0.47650453    -0.10300
C741        C  0.57297490  0.59161893  0.49396934    -0.03200
C742        C  0.58981164  0.60899399  0.48161299    -0.18300
H743        H  0.70902061  0.67748007  0.45639570     0.10800
H744        H  0.67760674  0.65073572  0.48070818     0.10800
H745        H  0.63096387  0.66414426  0.39386557     0.10500
H746        H  0.66231365  0.69142293  0.36960464     0.11600
H747        H  0.63295382  0.63733389  0.48224533     0.11700
H748        H  0.62247750  0.62239679  0.40855890     0.13600
H749        H  0.60899769  0.57864190  0.41048022     0.10100
H750        H  0.58025579  0.54814530  0.43229009     0.12200
H751        H  0.56270116  0.59564723  0.51695151     0.08800
H752        H  0.59195548  0.62611987  0.49522916     0.11600
C753        C  0.69207621  0.81904338  0.39926360    -0.03000
C754        C  0.70002877  0.84003550  0.41693591    -0.05600
C755        C  0.68316522  0.85754055  0.42825718    -0.20700
C756        C  0.65791258  0.85442437  0.42262592     0.25000
C757        C  0.64989921  0.83384443  0.40398383    -0.18300
C758        C  0.66683996  0.81633193  0.39242362    -0.08200
C759        C  0.64075111  0.87336568  0.43596506    -0.18500
C760        C  0.61705076  0.86886358  0.44377105    -0.23300
C761        C  0.59982988  0.88813294  0.45605307     0.27100
C762        C  0.57468522  0.88541348  0.44914288    -0.20100
C763        C  0.55803840  0.90391731  0.45774415    -0.09700
C764        C  0.56609064  0.92534597  0.47419739    -0.10300
C765        C  0.59100403  0.92747948  0.48308639    -0.03200
C766        C  0.60778195  0.90908461  0.47397365    -0.18300
H767        H  0.71933062  0.84282799  0.42252261     0.10800
H768        H  0.68985346  0.87336245  0.44212997     0.10800
H769        H  0.63064907  0.83125268  0.39806081     0.10500
H770        H  0.66012256  0.80046929  0.37869475     0.11600
H771        H  0.64821259  0.89158803  0.43996345     0.11700
H772        H  0.60955208  0.85066236  0.43970952     0.13600
H773        H  0.56801506  0.86930936  0.43589228     0.10100
H774        H  0.53886773  0.90167156  0.45091663     0.12200
H775        H  0.59766339  0.94377216  0.49587070     0.08800
H776        H  0.62689652  0.91141998  0.48086623     0.11600
C777        C  0.57037935  0.06239163  0.51509442    -0.03000
C778        C  0.56979214  0.08624441  0.50163755    -0.05600
C779        C  0.58607088  0.10418225  0.51349169    -0.20700
C780        C  0.60314058  0.09884680  0.53931152     0.25000
C781        C  0.60413667  0.07483521  0.55228386    -0.18300
C782        C  0.58793978  0.05685329  0.54031121    -0.08200
C783        C  0.61981878  0.11873362  0.55121038    -0.18500
C784        C  0.63126172  0.11897210  0.58177601    -0.23300
C785        C  0.64735484  0.13950516  0.59335567     0.27100
C786        C  0.66487635  0.13529171  0.61907152    -0.20100
C787        C  0.68084712  0.15403293  0.62964865    -0.09700
C788        C  0.67947570  0.17742295  0.61478359    -0.10300
C789        C  0.66124073  0.18183567  0.59011564    -0.03200
C790        C  0.64533611  0.16324507  0.57968930    -0.18300
H791        H  0.55654330  0.09117343  0.48222720     0.10800
H792        H  0.58504656  0.12246064  0.50280106     0.10800
H793        H  0.61749280  0.06970870  0.57138723     0.10500
H794        H  0.58900623  0.03864107  0.55118293     0.11600
H795        H  0.62226832  0.13402132  0.53391142     0.11700
H796        H  0.62907113  0.10359280  0.59900488     0.13600
H797        H  0.66658338  0.11729074  0.63046408     0.10100
H798        H  0.69462693  0.15004282  0.64876210     0.12200
H799        H  0.65934630  0.19972757  0.57844880     0.08800
H800        H  0.63143017  0.16776758  0.56106748     0.11600
C801        C  0.49376724  0.98917607  0.61643490    -0.03000
C802        C  0.47095741  0.98473385  0.63211371    -0.05600
C803        C  0.46805307  0.98816236  0.66717104    -0.20700
C804        C  0.48769696  0.99655757  0.68717641     0.25000
C805        C  0.51068180  0.00052013  0.67170011    -0.18300
C806        C  0.51368930  0.99678402  0.63670212    -0.08200
C807        C  0.48400991  0.99929012  0.72439498    -0.18500
C808        C  0.49733216  0.01448134  0.74422883    -0.23300
C809        C  0.49520635  0.01425316  0.78195445     0.27100
C810        C  0.50073451  0.03537545  0.80104384    -0.20100
C811        C  0.50015863  0.03476633  0.83682353    -0.09700
C812        C  0.49448899  0.01284787  0.85393308    -0.10300
C813        C  0.48882768  0.99187855  0.83463279    -0.03200
C814        C  0.48926437  0.99252649  0.79924382    -0.18300
H815        H  0.45526269  0.97886663  0.61723169     0.10800
H816        H  0.45028212  0.98457547  0.67864925     0.10800
H817        H  0.52643395  0.00619070  0.68657433     0.10500
H818        H  0.53149296  0.00044898  0.62539307     0.11600
H819        H  0.46942799  0.98843362  0.73580245     0.11700
H820        H  0.51016021  0.02728729  0.73270044     0.13600
H821        H  0.50566178  0.05227070  0.78825696     0.10100
H822        H  0.50478315  0.05115329  0.85101927     0.12200
H823        H  0.48443425  0.97464061  0.84690051     0.08800
H824        H  0.48575690  0.97565424  0.78558335     0.11600
C825        C  0.50242121  0.98999179  0.11713321    -0.03000
C826        C  0.48041296  0.99019401  0.13603355    -0.05600
C827        C  0.48060206  0.99539737  0.17094132    -0.20700
C828        C  0.50274267  0.00041032  0.18794847     0.25000
C829        C  0.52485308  0.99972777  0.16918384    -0.18300
C830        C  0.52467026  0.99446200  0.13427525    -0.08200
C831        C  0.50183129  0.00681539  0.22489616    -0.18500
C832        C  0.52137196  0.00522891  0.24585169    -0.23300
C833        C  0.51965970  0.00884943  0.28328919     0.27100
C834        C  0.53492823  0.99466822  0.30419229    -0.20100
C835        C  0.53271622  0.99579530  0.33954057    -0.09700
C836        C  0.51565799  0.01166819  0.35489075    -0.10300
C837        C  0.50135942  0.02708665  0.33420483    -0.03200
C838        C  0.50317793  0.02554345  0.29855144    -0.18300
H839        H  0.46289500  0.98704089  0.12368080     0.10800
H840        H  0.46329562  0.99579811  0.18464754     0.10800
H841        H  0.54230190  0.00405208  0.18088672     0.10500
H842        H  0.54192591  0.99482992  0.12047243     0.11600
H843        H  0.48400471  0.01146068  0.23565244     0.11700
H844        H  0.53875745  0.99844062  0.23610874     0.13600
H845        H  0.54793738  0.98189043  0.29310303     0.10100
H846        H  0.54401145  0.98379490  0.35498823     0.12200
H847        H  0.48802722  0.03940869  0.34552407     0.08800
H848        H  0.49158616  0.03718297  0.28304297     0.11600
C849        C  0.56550242  0.92997239  0.95707509    -0.03000
C850        C  0.55815786  0.91191934  0.93352991    -0.05600
C851        C  0.57446413  0.89370203  0.92284770    -0.20700
C852        C  0.59869513  0.89321547  0.93487008     0.25000
C853        C  0.60610597  0.91101695  0.95883311    -0.18300
C854        C  0.58961252  0.92918597  0.96990280    -0.08200
C855        C  0.61530402  0.87340893  0.92251681    -0.18500
C856        C  0.63985868  0.87606770  0.91999657    -0.23300
C857        C  0.65699371  0.85640724  0.90834846     0.27100
C858        C  0.68199383  0.85895773  0.91624457    -0.20100
C859        C  0.69887124  0.84076853  0.90740178    -0.09700
C860        C  0.69128534  0.81950303  0.89005310    -0.10300
C861        C  0.66641459  0.81726422  0.88082966    -0.03200
C862        C  0.64939576  0.83552652  0.88987725    -0.18300
H863        H  0.53966920  0.91179738  0.92327380     0.10800
H864        H  0.56819802  0.88010052  0.90470391     0.10800
H865        H  0.62445860  0.91076008  0.96945942     0.10500
H866        H  0.59578862  0.94273460  0.98815347     0.11600
H867        H  0.60672038  0.85642096  0.91455143     0.11700
H868        H  0.64804844  0.89336187  0.92763692     0.13600
H869        H  0.68847234  0.87490235  0.93003754     0.10100
H870        H  0.71792010  0.84327656  0.91466570     0.12200
H871        H  0.66001576  0.80118455  0.86729509     0.08800
H872        H  0.63045358  0.83312603  0.88226723     0.11600
C873        C  0.56536647  0.06570483  0.00374500    -0.03000
C874        C  0.56113722  0.08995530  0.99310552    -0.05600
C875        C  0.57705247  0.10882743  0.00296373    -0.20700
C876        C  0.59742774  0.10396980  0.02387627     0.25000
C877        C  0.60220798  0.07955628  0.03340402    -0.18300
C878        C  0.58631114  0.06070047  0.02356990    -0.08200
C879        C  0.61338617  0.12474519  0.03473675    -0.18500
C880        C  0.62764260  0.12409779  0.06289606    -0.23300
C881        C  0.64376256  0.14454786  0.07479063     0.27100
C882        C  0.65668308  0.14151769  0.10553083    -0.20100
C883        C  0.67252005  0.15977325  0.11761448    -0.09700
C884        C  0.67579823  0.18161568  0.09925078    -0.10300
C885        C  0.66272467  0.18480723  0.06866054    -0.03200
C886        C  0.64697882  0.16653354  0.05649176    -0.18300
H887        H  0.54522994  0.09447905  0.97775176     0.10800
H888        H  0.57311413  0.12739166  0.99483879     0.10800
H889        H  0.61823347  0.07481125  0.04830208     0.10500
H890        H  0.59028410  0.04221040  0.03195754     0.11600
H891        H  0.61229887  0.14126457  0.01958714     0.11700
H892        H  0.62723096  0.10785577  0.07879079     0.13600
H893        H  0.65467886  0.12482647  0.12020737     0.10100
H894        H  0.68235871  0.15665836  0.14119509     0.12200
H895        H  0.66491989  0.20135093  0.05371458     0.08800
H896        H  0.63776484  0.16986095  0.03261092     0.11600
C897        C  0.06812226  0.55539925  0.78170887    -0.03000
C898        C  0.06681193  0.56502876  0.81492720    -0.05600
C899        C  0.08515158  0.58052009  0.82727090    -0.20700
C900        C  0.10505614  0.58721054  0.80661144     0.25000
C901        C  0.10655557  0.57760038  0.77333164    -0.18300
C902        C  0.08827957  0.56173236  0.76105496    -0.08200
C903        C  0.12379794  0.60413809  0.82093222    -0.18500
C904        C  0.13637413  0.62026590  0.80176256    -0.23300
C905        C  0.15253172  0.63950137  0.81652616     0.27100
C906        C  0.15504170  0.66166756  0.79887042    -0.20100
C907        C  0.16980753  0.68042917  0.81171563    -0.09700
C908        C  0.18285415  0.67737079  0.84236407    -0.10300
C909        C  0.18057458  0.65503928  0.86000620    -0.03200
C910        C  0.16549188  0.63628515  0.84727336    -0.18300
H911        H  0.05170393  0.56034536  0.83171715     0.10800
H912        H  0.08361832  0.58755416  0.85300313     0.10800
H913        H  0.12198299  0.58196353  0.75698093     0.10500
H914        H  0.08991240  0.55444750  0.73548435     0.11600
H915        H  0.12542094  0.60499676  0.84847525     0.11700
H916        H  0.13289762  0.62102759  0.77454775     0.13600
H917        H  0.14534600  0.66458103  0.77511438     0.10100
H918        H  0.17126008  0.69726382  0.79723729     0.12200
H919        H  0.19055703  0.65199973  0.88348608     0.08800
H920        H  0.16440558  0.61918535  0.86116591     0.11600
C921        C  0.43114297  0.57087497  0.98170188    -0.03000
C922        C  0.40884593  0.56177142  0.96872606    -0.05600
C923        C  0.39039821  0.57767865  0.95789852    -0.20700
C924        C  0.39379351  0.60311453  0.95925415     0.25000
C925        C  0.41586803  0.61241886  0.97290338    -0.18300
C926        C  0.43437084  0.59638693  0.98414722    -0.08200
C927        C  0.37340286  0.61899310  0.94717868    -0.18500
C928        C  0.37629386  0.64211191  0.93580276    -0.23300
C929        C  0.35529280  0.65713912  0.92327752     0.27100
C930        C  0.35969286  0.67636546  0.90026784    -0.20100
C931        C  0.34029726  0.69103423  0.88852945    -0.09700
C932        C  0.31608311  0.68683105  0.89977251    -0.10300
C933        C  0.31175256  0.66759559  0.92283721    -0.03200
C934        C  0.33107227  0.65306015  0.93460838    -0.18300
H935        H  0.40567360  0.54222396  0.96664154     0.10800
H936        H  0.37349448  0.57002363  0.94787954     0.10800
H937        H  0.41882564  0.63196056  0.97518960     0.10500
H938        H  0.45136792  0.60392169  0.99398381     0.11600
H939        H  0.35537614  0.61052297  0.94570767     0.11700
H940        H  0.39462742  0.64989034  0.93403112     0.13600
H941        H  0.37819377  0.68004951  0.89136292     0.10100
H942        H  0.34432164  0.70584729  0.87103332     0.12200
H943        H  0.29343127  0.66405094  0.93250804     0.08800
H944        H  0.32693305  0.63908959  0.95329082     0.11600
C945        C  0.30684913  0.81901863  0.89975369    -0.03000
C946        C  0.30023164  0.83732572  0.92331007    -0.05600
C947        C  0.31716233  0.85516203  0.93333777    -0.20700
C948        C  0.34120953  0.85507981  0.92041274     0.25000
C949        C  0.34771626  0.83723376  0.89603214    -0.18300
C950        C  0.33070315  0.81937507  0.88587196    -0.08200
C951        C  0.35863023  0.87416547  0.93270978    -0.18500
C952        C  0.38326573  0.87153881  0.93217926    -0.23300
C953        C  0.40064118  0.89066909  0.94444943     0.27100
C954        C  0.42459972  0.89078558  0.93124023    -0.20100
C955        C  0.44138117  0.90881630  0.94100112    -0.09700
C956        C  0.43473852  0.92704464  0.96466580    -0.10300
C957        C  0.41108348  0.92639934  0.97905417    -0.03200
C958        C  0.39415275  0.90840849  0.96902047    -0.18300
H959        H  0.28199994  0.83773152  0.93444462     0.10800
H960        H  0.31156439  0.86883345  0.95181830     0.10800
H961        H  0.36579124  0.83704893  0.88450930     0.10500
H962        H  0.33633825  0.80568230  0.86746431     0.11600
H963        H  0.35065019  0.89073807  0.94327924     0.11700
H964        H  0.39127169  0.85498775  0.92158271     0.13600
H965        H  0.43021031  0.87717180  0.91268293     0.10100
H966        H  0.45956046  0.90859930  0.92967301     0.12200
H967        H  0.40549284  0.94008887  0.99749204     0.08800
H968        H  0.37614296  0.90842122  0.98073686     0.11600
C969        C  0.23330034  0.75354843  0.50648189    -0.03000
C970        C  0.22767946  0.77558999  0.52325329    -0.05600
C971        C  0.23079380  0.77766966  0.55840323    -0.20700
C972        C  0.23994553  0.75793766  0.57748901     0.25000
C973        C  0.24490501  0.73559818  0.56090131    -0.18300
C974        C  0.24156536  0.73343993  0.52571154    -0.08200
C975        C  0.24283289  0.76116411  0.61476328    -0.18500
C976        C  0.25730357  0.74705015  0.63457269    -0.23300
C977        C  0.25792412  0.74963590  0.67224892     0.27100
C978        C  0.27840469  0.74116706  0.69069993    -0.20100
C979        C  0.27864336  0.74224618  0.72642913    -0.09700
C980        C  0.25818243  0.75146657  0.74415272    -0.10300
C981        C  0.23789116  0.76013212  0.72558636    -0.03200
C982        C  0.23767476  0.75912441  0.69021519    -0.18300
H983        H  0.22123540  0.79138190  0.50911531     0.10800
H984        H  0.22643772  0.79493950  0.57065997     0.10800
H985        H  0.25118900  0.71972151  0.57490819     0.10500
H986        H  0.24616299  0.71625111  0.51342521     0.11600
H987        H  0.23295095  0.77641239  0.62611375     0.11700
H988        H  0.26920865  0.73337728  0.62306502     0.13600
H989        H  0.29411494  0.73349136  0.67745385     0.10100
H990        H  0.29439709  0.73519374  0.74014956     0.12200
H991        H  0.22178869  0.76729264  0.73848910     0.08800
H992        H  0.22114123  0.76499415  0.67728342     0.11600
C993        C  0.25600476  0.74455881  0.24437798    -0.03000
C994        C  0.27630685  0.75332606  0.22590276    -0.05600
C995        C  0.27566012  0.75378300  0.19015471    -0.20700
C996        C  0.25495819  0.74506630  0.17240770     0.25000
C997        C  0.23501266  0.73569178  0.19106823    -0.18300
C998        C  0.23558938  0.73539038  0.22650388    -0.08200
C999        C  0.25372272  0.74750114  0.13474089    -0.18500
C1000       C  0.23945363  0.73298754  0.11520007    -0.23300
C1001       C  0.23665267  0.73625739  0.07792281     0.27100
C1002       C  0.23126104  0.71575061  0.05770364    -0.20100
C1003       C  0.22886807  0.71806176  0.02240722    -0.09700
C1004       C  0.23139929  0.74107036  0.00665195    -0.10300
C1005       C  0.23563974  0.76180397  0.02715409    -0.03200
C1006       C  0.23829631  0.75942847  0.06242370    -0.18300
H1007       H  0.29218637  0.76067201  0.23903589     0.10800
H1008       H  0.29118432  0.76128843  0.17633470     0.10800
H1009       H  0.21842660  0.72948696  0.17856030     0.10500
H1010       H  0.21963764  0.72848469  0.23999792     0.11600
H1011       H  0.26508132  0.76146075  0.12282264     0.11700
H1012       H  0.23011348  0.71742259  0.12658942     0.13600
H1013       H  0.22949713  0.69777083  0.06917324     0.10100
H1014       H  0.22555878  0.70172893  0.00740325     0.12200
H1015       H  0.23762734  0.77980949  0.01586800     0.08800
H1016       H  0.24155525  0.77574021  0.07746144     0.11600
C1017       C  0.17599239  0.68260236  0.35535997    -0.03000
C1018       C  0.15318051  0.69002474  0.34214130    -0.05600
C1019       C  0.13578067  0.67270730  0.33191107    -0.20700
C1020       C  0.14099703  0.64755852  0.33366703     0.25000
C1021       C  0.16366079  0.63998004  0.34746473    -0.18300
C1022       C  0.18093553  0.65739857  0.35852454    -0.08200
C1023       C  0.12191107  0.62998270  0.32191796    -0.18500
C1024       C  0.12690687  0.60802659  0.30763024    -0.23300
C1025       C  0.10718668  0.59118880  0.29531220     0.27100
C1026       C  0.11214492  0.57436622  0.26898354    -0.20100
C1027       C  0.09391153  0.55803202  0.25758781    -0.09700
C1028       C  0.07043158  0.55803087  0.27266614    -0.10300
C1029       C  0.06559244  0.57493886  0.29895279    -0.03200
C1030       C  0.08367013  0.59116453  0.31020324    -0.18300
H1031       H  0.14882851  0.70931776  0.33955737     0.10800
H1032       H  0.11834784  0.67901311  0.32182184     0.10800
H1033       H  0.16796023  0.62068532  0.34994777     0.10500
H1034       H  0.19842162  0.65120231  0.36853526     0.11600
H1035       H  0.10299060  0.63631297  0.32292006     0.11700
H1036       H  0.14592654  0.60273194  0.30337972     0.13600
H1037       H  0.13017323  0.57386223  0.25722617     0.10100
H1038       H  0.09832768  0.54513844  0.23750803     0.12200
H1039       H  0.04782343  0.57541568  0.31143889     0.08800
H1040       H  0.07926340  0.60320125  0.33125337     0.11600
C1041       C  0.31201174  0.68659603  0.40605826    -0.03000
C1042       C  0.30800295  0.67260359  0.43569390    -0.05600
C1043       C  0.32657158  0.65775574  0.44906454    -0.20700
C1044       C  0.34948246  0.65603897  0.43286233     0.25000
C1045       C  0.35352993  0.66970484  0.40291237    -0.18300
C1046       C  0.33500994  0.68496128  0.38977324    -0.08200
C1047       C  0.36879926  0.64030778  0.44848847    -0.18500
C1048       C  0.38574042  0.62818820  0.43002780    -0.23300
C1049       C  0.40307765  0.61021310  0.44527889     0.27100
C1050       C  0.40890043  0.58911702  0.42662464    -0.20100
C1051       C  0.42481929  0.57151636  0.43996437    -0.09700
C1052       C  0.43591195  0.57484053  0.47200367    -0.10300
C1053       C  0.43063354  0.59629525  0.49049101    -0.03200
C1054       C  0.41409644  0.61373830  0.47740261    -0.18300
H1055       H  0.29063038  0.67355645  0.44916752     0.10800
H1056       H  0.32299000  0.64750071  0.47217744     0.10800
H1057       H  0.37117027  0.66914949  0.39012864     0.10500
H1058       H  0.33875164  0.69561411  0.36708324     0.11600
H1059       H  0.36769335  0.63692143  0.47572501     0.11700
H1060       H  0.38526953  0.62951596  0.40242896     0.13600
H1061       H  0.40080505  0.58606127  0.40177230     0.10100
H1062       H  0.42877346  0.55538222  0.42480960     0.12200
H1063       H  0.43905887  0.59943125  0.51509334     0.08800
H1064       H  0.41026603  0.63011185  0.49208361     0.11600
C1065       C  0.43478198  0.93318726  0.45113386    -0.03000
C1066       C  0.44067376  0.91695651  0.42448317    -0.05600
C1067       C  0.42373183  0.89951766  0.41330476    -0.20700
C1068       C  0.40032392  0.89784859  0.42815600     0.25000
C1069       C  0.39433508  0.91400852  0.45500352    -0.18300
C1070       C  0.41140669  0.93150867  0.46631619    -0.08200
C1071       C  0.38339192  0.87833453  0.41557609    -0.18500
C1072       C  0.35888658  0.87819805  0.42085818    -0.23300
C1073       C  0.34196998  0.85844136  0.40873873     0.27100
C1074       C  0.31653015  0.86255109  0.41098344    -0.20100
C1075       C  0.29976638  0.84422184  0.40210494    -0.09700
C1076       C  0.30797161  0.82122440  0.39053025    -0.10300
C1077       C  0.33338535  0.81719955  0.38732549    -0.03200
C1078       C  0.35023177  0.83549770  0.39656053    -0.18300
H1079       H  0.45852520  0.91758671  0.41223953     0.10800
H1080       H  0.42897902  0.88724875  0.39282881     0.10800
H1081       H  0.37677454  0.91297099  0.46786169     0.10500
H1082       H  0.40633315  0.94365072  0.48699849     0.11600
H1083       H  0.39166150  0.86399066  0.40027593     0.11700
H1084       H  0.35049800  0.89353033  0.43410892     0.13600
H1085       H  0.30953675  0.87993502  0.42021610     0.10100
H1086       H  0.28029354  0.84797461  0.40479457     0.12200
H1087       H  0.34027871  0.79958157  0.37888309     0.08800
H1088       H  0.36957155  0.83112307  0.39497848     0.11600
C1089       C  0.06717859  0.42555320  0.72812546    -0.03000
C1090       C  0.06886831  0.40368593  0.74694612    -0.05600
C1091       C  0.08651298  0.38593681  0.73856357    -0.20700
C1092       C  0.10243012  0.38941363  0.71078048     0.25000
C1093       C  0.10089457  0.41134881  0.69213722    -0.18300
C1094       C  0.08353945  0.42922163  0.70078896    -0.08200
C1095       C  0.12113019  0.37040303  0.70264612    -0.18500
C1096       C  0.12911531  0.36601294  0.67068249    -0.23300
C1097       C  0.14828591  0.34746671  0.66257653     0.27100
C1098       C  0.14784036  0.33550340  0.63088107    -0.20100
C1099       C  0.16602284  0.31835218  0.62227794    -0.09700
C1100       C  0.18539391  0.31334279  0.64489908    -0.10300
C1101       C  0.18599455  0.32561023  0.67643071    -0.03200
C1102       C  0.16761048  0.34238322  0.68525261    -0.18300
H1103       H  0.05663982  0.40033523  0.76823829     0.10800
H1104       H  0.08754316  0.36929961  0.75355865     0.10800
H1105       H  0.11335944  0.41493482  0.67120203     0.10500
H1106       H  0.08281448  0.44586846  0.68579738     0.11600
H1107       H  0.12771012  0.35902218  0.72343044     0.11700
H1108       H  0.12065833  0.37563264  0.64948699     0.13600
H1109       H  0.13327077  0.33931630  0.61283745     0.10100
H1110       H  0.16512871  0.30929071  0.59775737     0.12200
H1111       H  0.20065963  0.32214438  0.69445619     0.08800
H1112       H  0.16888374  0.35174490  0.70950624     0.11600
C1113       C  0.31860106  0.31998230  0.60402799    -0.03000
C1114       C  0.32031473  0.34020534  0.62611851    -0.05600
C1115       C  0.33650742  0.35951162  0.61894655    -0.20700
C1116       C  0.35100248  0.35924322  0.58930395     0.25000
C1117       C  0.34943817  0.33894104  0.56733459    -0.18300
C1118       C  0.33344630  0.31957159  0.57462506    -0.08200
C1119       C  0.36837918  0.37978250  0.58279041    -0.18500
C1120       C  0.37549680  0.38656363  0.55123728    -0.23300
C1121       C  0.39362982  0.40642295  0.54457089     0.27100
C1122       C  0.39305058  0.41879139  0.51318941    -0.20100
C1123       C  0.41058913  0.43675820  0.50539848    -0.09700
C1124       C  0.42936826  0.44243276  0.52866022    -0.10300
C1125       C  0.42990349  0.43003843  0.56011632    -0.03200
C1126       C  0.41227571  0.41226425  0.56799376    -0.18300
H1127       H  0.30916807  0.34111822  0.64896563     0.10800
H1128       H  0.33756037  0.37482630  0.63646083     0.10800
H1129       H  0.36086729  0.33771258  0.54480852     0.10500
H1130       H  0.33267136  0.30427690  0.55705823     0.11600
H1131       H  0.37473914  0.39015815  0.60467715     0.11700
H1132       H  0.36719343  0.37778022  0.52925139     0.13600
H1133       H  0.37899567  0.41448644  0.49459014     0.10100
H1134       H  0.40967152  0.44590387  0.48095315     0.12200
H1135       H  0.44413370  0.43389219  0.57864774     0.08800
H1136       H  0.41377171  0.40267291  0.59202596     0.11600
C1137       C  0.32178705  0.18171920  0.59196057    -0.03000
C1138       C  0.32578427  0.16064665  0.61176544    -0.05600
C1139       C  0.34218899  0.14243709  0.60079703    -0.20700
C1140       C  0.35494930  0.14473456  0.56974621     0.25000
C1141       C  0.35102464  0.16595815  0.55004719    -0.18300
C1142       C  0.33480942  0.18422874  0.56115714    -0.08200
C1143       C  0.37131386  0.12419200  0.55853914    -0.18500
C1144       C  0.38733369  0.12543240  0.53220963    -0.23300
C1145       C  0.40356186  0.10470729  0.52152404     0.27100
C1146       C  0.42487946  0.10985302  0.50252918    -0.20100
C1147       C  0.44100218  0.09105656  0.49279375    -0.09700
C1148       C  0.43609535  0.06656635  0.50164682    -0.10300
C1149       C  0.41427520  0.06130818  0.51955293    -0.03200
C1150       C  0.39815825  0.08008728  0.52924102    -0.18300
H1151       H  0.31607977  0.15811253  0.63561629     0.10800
H1152       H  0.34472569  0.12632713  0.61653646     0.10800
H1153       H  0.35986118  0.16848514  0.52565165     0.10500
H1154       H  0.33200764  0.20010413  0.54505838     0.11600
H1155       H  0.37047128  0.10749724  0.57349236     0.11700
H1156       H  0.38974229  0.14256932  0.51868792     0.13600
H1157       H  0.42936392  0.12858362  0.49578895     0.10100
H1158       H  0.45759132  0.09580306  0.47899721     0.12200
H1159       H  0.40974028  0.04263752  0.52650532     0.08800
H1160       H  0.38149040  0.07512584  0.54261010     0.11600
C1161       C  0.26639747  0.24292026  0.75145244    -0.03000
C1162       C  0.27084140  0.22024716  0.76729662    -0.05600
C1163       C  0.26883909  0.21791615  0.80260226    -0.20700
C1164       C  0.26191645  0.23803341  0.82266847     0.25000
C1165       C  0.25825196  0.26092322  0.80705818    -0.18300
C1166       C  0.26053204  0.26334545  0.77177708    -0.08200
C1167       C  0.25970294  0.23477978  0.85992761    -0.18500
C1168       C  0.24421546  0.24802706  0.87941425    -0.23300
C1169       C  0.24366066  0.24581095  0.91704353     0.27100
C1170       C  0.22219519  0.25194420  0.93515860    -0.20100
C1171       C  0.22193333  0.25139537  0.97088615    -0.09700
C1172       C  0.24332717  0.24511926  0.98890579    -0.10300
C1173       C  0.26461961  0.23868346  0.97062172    -0.03200
C1174       C  0.26483916  0.23911208  0.93522992    -0.18300
H1175       H  0.27543787  0.20417980  0.75237042     0.10800
H1176       H  0.27214585  0.20020221  0.81421114     0.10800
H1177       H  0.25373820  0.27698052  0.82203050     0.10500
H1178       H  0.25702069  0.28107404  0.76035847     0.11600
H1179       H  0.27061982  0.22030413  0.87139711     0.11700
H1180       H  0.23139465  0.26066460  0.86751338     0.13600
H1181       H  0.20571676  0.25739909  0.92164345     0.10100
H1182       H  0.20534135  0.25661600  0.98434806     0.12200
H1183       H  0.28144331  0.23377074  0.98371893     0.08800
H1184       H  0.28196343  0.23504964  0.92234088     0.11600
C1185       C  0.24427596  0.25360590  0.48843350    -0.03000
C1186       C  0.22250645  0.24947603  0.47005490    -0.05600
C1187       C  0.22290152  0.24923322  0.43432038    -0.20700
C1188       C  0.24493025  0.25346676  0.41647679     0.25000
C1189       C  0.26654058  0.25800095  0.43496772    -0.18300
C1190       C  0.26617989  0.25815890  0.47039255    -0.08200
C1191       C  0.24544531  0.25144378  0.37879102    -0.18500
C1192       C  0.26211104  0.26334350  0.35951305    -0.23300
C1193       C  0.26398721  0.26015711  0.32217358     0.27100
C1194       C  0.27197500  0.27992984  0.30224514    -0.20100
C1195       C  0.27373600  0.27763539  0.26689971    -0.09700
C1196       C  0.26808341  0.25529238  0.25086281    -0.10300
C1197       C  0.26108416  0.23515879  0.27100680    -0.03200
C1198       C  0.25894461  0.23758907  0.30634689    -0.18300
H1199       H  0.20537563  0.24586709  0.48322627     0.10800
H1200       H  0.20604334  0.24551355  0.42057568     0.10800
H1201       H  0.28402102  0.26057551  0.42226222     0.10500
H1202       H  0.28333880  0.26139341  0.48364710     0.11600
H1203       H  0.23158431  0.24009447  0.36662561     0.11700
H1204       H  0.27427795  0.27669607  0.37119501     0.13600
H1205       H  0.27631750  0.29737406  0.31399853     0.10100
H1206       H  0.27922169  0.29346387  0.25207847     0.12200
H1207       H  0.25654816  0.21773034  0.25937968     0.08800
H1208       H  0.25349005  0.22178889  0.32122695     0.11600
C1209       C  0.18307458  0.31169850  0.14219447    -0.03000
C1210       C  0.16274264  0.31462652  0.12050074    -0.05600
C1211       C  0.14361576  0.33070995  0.12926895    -0.20700
C1212       C  0.14410719  0.34360896  0.16026707     0.25000
C1213       C  0.16434275  0.34046877  0.18208122    -0.18300
C1214       C  0.18363249  0.32481488  0.17304575    -0.08200
C1215       C  0.12424391  0.36147413  0.16823396    -0.18500
C1216       C  0.11716527  0.36690289  0.20031197    -0.23300
C1217       C  0.09879649  0.38627741  0.20830941     0.27100
C1218       C  0.08386694  0.38399350  0.23736523    -0.20100
C1219       C  0.06706729  0.40247542  0.24609686    -0.09700
C1220       C  0.06531858  0.42392039  0.22636687    -0.10300
C1221       C  0.08053978  0.42628041  0.19752521    -0.03200
C1222       C  0.09700261  0.40766915  0.18852825    -0.18300
H1223       H  0.16184172  0.30482667  0.09653389     0.10800
H1224       H  0.12835100  0.33304447  0.11185187     0.10800
H1225       H  0.16566422  0.35059863  0.20572313     0.10500
H1226       H  0.19900046  0.32289126  0.19038152     0.11600
H1227       H  0.11490224  0.37010707  0.14693048     0.11700
H1228       H  0.12467531  0.35649761  0.22147513     0.13600
H1229       H  0.08511468  0.36779385  0.25322665     0.10100
H1230       H  0.05564564  0.40008916  0.26847223     0.12200
H1231       H  0.07967077  0.44252113  0.18170968     0.08800
H1232       H  0.10871769  0.41033559  0.16652319     0.11600
C1233       C  0.43678900  0.43575090  0.01622454    -0.03000
C1234       C  0.44515508  0.41374129  0.03070459    -0.05600
C1235       C  0.42863267  0.39511573  0.03907868    -0.20700
C1236       C  0.40330713  0.39832122  0.03410766     0.25000
C1237       C  0.39486718  0.42007524  0.01875397    -0.18300
C1238       C  0.41154854  0.43857099  0.00956954    -0.08200
C1239       C  0.38646035  0.37830750  0.04464858    -0.18500
C1240       C  0.36367102  0.38218149  0.05711564    -0.23300
C1241       C  0.34756266  0.36180449  0.06897234     0.27100
C1242       C  0.32971381  0.36622867  0.09418732    -0.20100
C1243       C  0.31419582  0.34733131  0.10547269    -0.09700
C1244       C  0.31602407  0.32370001  0.09135286    -0.10300
C1245       C  0.33381940  0.31940908  0.06598130    -0.03200
C1246       C  0.34931876  0.33817264  0.05488640    -0.18300
H1247       H  0.46453636  0.41103542  0.03589955     0.10800
H1248       H  0.43560039  0.37839800  0.05042050     0.10800
H1249       H  0.37546789  0.42277037  0.01379746     0.10500
H1250       H  0.40465246  0.45539271  0.99846233     0.11600
H1251       H  0.39396787  0.35986607  0.04466212     0.11700
H1252       H  0.35714485  0.40085072  0.06045989     0.13600
H1253       H  0.32785363  0.38432257  0.10527575     0.10100
H1254       H  0.30058149  0.35130026  0.12486946     0.12200
H1255       H  0.33567369  0.30150477  0.05432291     0.08800
H1256       H  0.36226440  0.33417046  0.03468171     0.11600
C1257       C  0.32961260  0.18948586  0.09970636    -0.03000
C1258       C  0.34797809  0.19690048  0.07659795    -0.05600
C1259       C  0.36595305  0.18043799  0.06543900    -0.20700
C1260       C  0.36585387  0.15603780  0.07659898     0.25000
C1261       C  0.34821525  0.14881735  0.10097473    -0.18300
C1262       C  0.33029770  0.16541997  0.11245419    -0.08200
C1263       C  0.38429349  0.13878542  0.06193657    -0.18500
C1264       C  0.38013919  0.11455468  0.05842633    -0.23300
C1265       C  0.39780678  0.09700826  0.04253864     0.27100
C1266       C  0.39503667  0.07197828  0.04971342    -0.20100
C1267       C  0.41123659  0.05468131  0.03606503    -0.09700
C1268       C  0.43063681  0.06190519  0.01454419    -0.10300
C1269       C  0.43297483  0.08689798  0.00631210    -0.03200
C1270       C  0.41672840  0.10428535  0.02010509    -0.18300
H1271       H  0.34818237  0.21537422  0.06649457     0.10800
H1272       H  0.37951052  0.18659421  0.04708713     0.10800
H1273       H  0.34811176  0.13038245  0.11112225     0.10500
H1274       H  0.31653548  0.15919320  0.13044177     0.11600
H1275       H  0.40125732  0.14665960  0.05235541     0.11700
H1276       H  0.36297504  0.10696086  0.06783179     0.13600
H1277       H  0.38049900  0.06577595  0.06652948     0.10100
H1278       H  0.40877584  0.03561863  0.04296596     0.12200
H1279       H  0.44763547  0.09309717  0.98972188     0.08800
H1280       H  0.41904971  0.12327516  0.01292742     0.11600
C1281       C  0.93194301  0.06970708  0.73425991    -0.03000
C1282       C  0.90857130  0.06106428  0.72484973    -0.05600
C1283       C  0.88987794  0.07733260  0.71604425    -0.20700
C1284       C  0.89410025  0.10266194  0.71577679     0.25000
C1285       C  0.91733506  0.11153578  0.72582540    -0.18300
C1286       C  0.93608487  0.09514487  0.73518987    -0.08200
C1287       C  0.87344434  0.11891582  0.70566382    -0.18500
C1288       C  0.87630964  0.14125017  0.69158586    -0.23300
C1289       C  0.85506799  0.15635655  0.67999871     0.27100
C1290       C  0.85855761  0.17381885  0.65415695    -0.20100
C1291       C  0.83896549  0.18844309  0.64295421    -0.09700
C1292       C  0.81545422  0.18601551  0.65758005    -0.10300
C1293       C  0.81201630  0.16852133  0.68346249    -0.03200
C1294       C  0.83155517  0.15399942  0.69467466    -0.18300
H1295       H  0.90470811  0.04159017  0.72414262     0.10800
H1296       H  0.87210385  0.07002699  0.70879306     0.10800
H1297       H  0.92099789  0.13102104  0.72674651     0.10500
H1298       H  0.95392216  0.10230687  0.74236283     0.11600
H1299       H  0.85510355  0.11118917  0.70760433     0.11700
H1300       H  0.89470913  0.14807079  0.68648358     0.13600
H1301       H  0.87650122  0.17613380  0.64256920     0.10100
H1302       H  0.84232582  0.20186485  0.62317288     0.12200
H1303       H  0.79428448  0.16637058  0.69570046     0.08800
H1304       H  0.82821173  0.14140988  0.71544755     0.11600
C1305       C  0.93671083  0.93432377  0.77374991    -0.03000
C1306       C  0.94589405  0.91304438  0.78936435    -0.05600
C1307       C  0.93020679  0.89387524  0.79807768    -0.20700
C1308       C  0.90489494  0.89570535  0.79214407     0.25000
C1309       C  0.89555096  0.91681679  0.77605410    -0.18300
C1310       C  0.91142134  0.93594348  0.76667478    -0.08200
C1311       C  0.88910757  0.87492663  0.80261417    -0.18500
C1312       C  0.86590863  0.87769735  0.81387234    -0.23300
C1313       C  0.85106721  0.85680248  0.82674947     0.27100
C1314       C  0.83242021  0.86125921  0.85070903    -0.20100
C1315       C  0.81780335  0.84204961  0.86284200    -0.09700
C1316       C  0.82132793  0.81802668  0.85080830    -0.10300
C1317       C  0.84011242  0.81354415  0.82699215    -0.03200
C1318       C  0.85479239  0.83269418  0.81503787    -0.18300
H1319       H  0.96532666  0.91117697  0.79486668     0.10800
H1320       H  0.93783347  0.87771204  0.81014133     0.10800
H1321       H  0.87612619  0.91845438  0.77044791     0.10500
H1322       H  0.90389578  0.95214329  0.75461062     0.11600
H1323       H  0.89777014  0.85702223  0.80395938     0.11700
H1324       H  0.85813165  0.89598964  0.81584749     0.13600
H1325       H  0.82911056  0.87967420  0.85998745     0.10100
H1326       H  0.80328838  0.84614183  0.88089428     0.12200
H1327       H  0.84315385  0.79527945  0.81699559     0.08800
H1328       H  0.86850636  0.82860168  0.79587277     0.11600
C1329       C  0.17676063  0.81522149  0.85562705    -0.03000
C1330       C  0.16978044  0.83269601  0.88009386    -0.05600
C1331       C  0.15325358  0.85141536  0.87165596    -0.20700
C1332       C  0.14378626  0.85334710  0.83848401     0.25000
C1333       C  0.15059718  0.83572523  0.81409330    -0.18300
C1334       C  0.16686429  0.81688435  0.82260626    -0.08200
C1335       C  0.12604980  0.87324965  0.83058691    -0.18500
C1336       C  0.12269376  0.88238090  0.79900641    -0.23300
C1337       C  0.10430009  0.90172603  0.79124550     0.27100
C1338       C  0.10796284  0.91718525  0.76306831    -0.20100
C1339       C  0.09073245  0.93537644  0.75495491    -0.09700
C1340       C  0.06935673  0.93823354  0.77472210    -0.10300
C1341       C  0.06555743  0.92243046  0.80256412    -0.03200
C1342       C  0.08273785  0.90437290  0.81066678    -0.18300
H1343       H  0.17703771  0.83186821  0.90574789     0.10800
H1344       H  0.14804177  0.86460217  0.89101430     0.10800
H1345       H  0.14310226  0.83613871  0.78858016     0.10500
H1346       H  0.17189482  0.80373386  0.80312127     0.11600
H1347       H  0.11612270  0.88124295  0.85189265     0.11700
H1348       H  0.13438868  0.87619865  0.77826685     0.13600
H1349       H  0.12429644  0.91529175  0.74744830     0.10100
H1350       H  0.09412565  0.94713959  0.73323973     0.12200
H1351       H  0.04915606  0.92387091  0.81812750     0.08800
H1352       H  0.07878349  0.89223974  0.83176912     0.11600
C1353       C  0.06758494  0.07181281  0.72638618    -0.03000
C1354       C  0.07135154  0.09277188  0.74655594    -0.05600
C1355       C  0.08877220  0.11045096  0.73698474    -0.20700
C1356       C  0.10234108  0.10787099  0.70668851     0.25000
C1357       C  0.09845959  0.08698900  0.68641352    -0.18300
C1358       C  0.08137649  0.06916595  0.69621761    -0.08200
C1359       C  0.12144181  0.12638331  0.69791617    -0.18500
C1360       C  0.12817076  0.13160554  0.66561603    -0.23300
C1361       C  0.14818645  0.14918743  0.65711585     0.27100
C1362       C  0.14710427  0.16254789  0.62655250    -0.20100
C1363       C  0.16589695  0.17899538  0.61778654    -0.09700
C1364       C  0.18650452  0.18188647  0.63900911    -0.10300
C1365       C  0.18783361  0.16802993  0.66918130    -0.03200
C1366       C  0.16886371  0.15198079  0.67823154    -0.18300
H1367       H  0.06108741  0.09534050  0.76994659     0.10800
H1368       H  0.09160584  0.12625418  0.75323330     0.10800
H1369       H  0.10903284  0.08403858  0.66339318     0.10500
H1370       H  0.07892355  0.05328148  0.68000937     0.11600
H1371       H  0.12973012  0.13650770  0.71878789     0.11700
H1372       H  0.11817623  0.12338022  0.64457614     0.13600
H1373       H  0.13150758  0.16048699  0.60964031     0.10100
H1374       H  0.16436958  0.18934696  0.59434705     0.12200
H1375       H  0.20341896  0.16986491  0.68615623     0.08800
H1376       H  0.17064108  0.14146890  0.70148167     0.11600
C1377       C  0.99908285  0.98854985  0.62187399    -0.03000
C1378       C  0.97659833  0.98651958  0.60445697    -0.05600
C1379       C  0.97591887  0.98768904  0.56892570    -0.20700
C1380       C  0.99760464  0.99122262  0.55018334     0.25000
C1381       C  0.02026157  0.99158219  0.56743262    -0.18300
C1382       C  0.02096930  0.99029312  0.60292812    -0.08200
C1383       C  0.99577807  0.99519177  0.51293098    -0.18500
C1384       C  0.01225209  0.00855115  0.49525679    -0.23300
C1385       C  0.00973100  0.01360187  0.45837458     0.27100
C1386       C  0.03104362  0.01682483  0.43875791    -0.20100
C1387       C  0.02941097  0.02036866  0.40359254    -0.09700
C1388       C  0.00634660  0.02110497  0.38743158    -0.10300
C1389       C  0.98495883  0.01930200  0.40745578    -0.03200
C1390       C  0.98661877  0.01558189  0.44257575    -0.18300
H1391       H  0.95943128  0.98487748  0.61829055     0.10800
H1392       H  0.95828524  0.98691076  0.55613673     0.10800
H1393       H  0.03745692  0.99318008  0.55372490     0.10500
H1394       H  0.03863211  0.99155901  0.61554030     0.11600
H1395       H  0.97967835  0.98790364  0.50010072     0.11700
H1396       H  0.02840356  0.01586358  0.50789357     0.13600
H1397       H  0.04903756  0.01577430  0.45051097     0.10100
H1398       H  0.04624871  0.02176305  0.38895524     0.12200
H1399       H  0.96690008  0.01994257  0.39587203     0.08800
H1400       H  0.96979198  0.01418513  0.45719796     0.11600
C1401       C  0.99416401  0.99813653  0.12452694    -0.03000
C1402       C  0.00085207  0.97684051  0.10672362    -0.05600
C1403       C  0.00095704  0.97669910  0.07100673    -0.20700
C1404       C  0.99431999  0.99776680  0.05244509     0.25000
C1405       C  0.98662993  0.01870431  0.07044141    -0.18300
C1406       C  0.98676982  0.01891609  0.10596326    -0.08200
C1407       C  0.99521271  0.99700225  0.01452444    -0.18500
C1408       C  0.99531130  0.01716960  0.99445392    -0.23300
C1409       C  0.99613305  0.01642945  0.95649191     0.27100
C1410       C  0.00172675  0.03800946  0.93835884    -0.20100
C1411       C  0.00274882  0.03801877  0.90262575    -0.09700
C1412       C  0.99822412  0.01636761  0.88436267    -0.10300
C1413       C  0.99214653  0.99495980  0.90254473    -0.03200
C1414       C  0.99092843  0.99499516  0.93798724    -0.18300
H1415       H  0.00659512  0.96055542  0.12034585     0.10800
H1416       H  0.00662580  0.96018264  0.05782415     0.10800
H1417       H  0.98031727  0.03498640  0.05744622     0.10500
H1418       H  0.98105428  0.03549541  0.11896040     0.11600
H1419       H  0.99690344  0.97899468  0.00312111     0.11700
H1420       H  0.99569959  0.03519416  0.00605986     0.13600
H1421       H  0.00551138  0.05489351  0.95190601     0.10100
H1422       H  0.00736133  0.05481426  0.88938394     0.12200
H1423       H  0.98811037  0.97799027  0.88934387     0.08800
H1424       H  0.98556449  0.97816731  0.95042884     0.11600
C1425       C  0.80614986  0.18047858  0.15730010    -0.03000
C1426       C  0.79852281  0.15914147  0.17445960    -0.05600
C1427       C  0.81571096  0.14204569  0.18602192    -0.20700
C1428       C  0.84095177  0.14591510  0.18111194     0.25000
C1429       C  0.84861990  0.16681323  0.16283653    -0.18300
C1430       C  0.83137435  0.18391938  0.15111428    -0.08200
C1431       C  0.85848247  0.12756973  0.19513685    -0.18500
C1432       C  0.88217361  0.13260846  0.20217979    -0.23300
C1433       C  0.89970653  0.11409567  0.21553365     0.27100
C1434       C  0.92465680  0.11668306  0.20739136    -0.20100
C1435       C  0.94175483  0.09926461  0.21808975    -0.09700
C1436       C  0.93437925  0.07902805  0.23778954    -0.10300
C1437       C  0.90956969  0.07694593  0.24736183    -0.03200
C1438       C  0.89231786  0.09428878  0.23620587    -0.18300
H1439       H  0.77922422  0.15577656  0.17947008     0.10800
H1440       H  0.80926471  0.12597258  0.19956294     0.10800
H1441       H  0.86783296  0.17004836  0.15733220     0.10500
H1442       H  0.83784420  0.20005931  0.13778135     0.11600
H1443       H  0.85136086  0.10936771  0.20040287     0.11700
H1444       H  0.88947534  0.15071523  0.19691007     0.13600
H1445       H  0.93085972  0.13191004  0.19188731     0.10100
H1446       H  0.96079262  0.10149028  0.21051405     0.12200
H1447       H  0.90339894  0.06155865  0.26255481     0.08800
H1448       H  0.87331649  0.09216838  0.24387450     0.11600
C1449       C  0.93254195  0.94441981  0.28577977    -0.03000
C1450       C  0.91620854  0.94929936  0.31277770    -0.05600
C1451       C  0.89968647  0.93142895  0.32408164    -0.20700
C1452       C  0.89900579  0.90813620  0.30889905     0.25000
C1453       C  0.91519665  0.90325434  0.28160803    -0.18300
C1454       C  0.93181393  0.92117243  0.27031739    -0.08200
C1455       C  0.88058537  0.89005176  0.32178913    -0.18500
C1456       C  0.88103787  0.86582441  0.31487488    -0.23300
C1457       C  0.86200170  0.84818437  0.32706620     0.27100
C1458       C  0.85883574  0.82618784  0.30907185    -0.20100
C1459       C  0.84100377  0.80918483  0.31905221    -0.09700
C1460       C  0.82594449  0.81361107  0.34759569    -0.10300
C1461       C  0.82946312  0.83536653  0.36617955    -0.03200
C1462       C  0.84732306  0.85245257  0.35611262    -0.18300
H1463       H  0.91628470  0.96692824  0.32547864     0.10800
H1464       H  0.88742227  0.93582546  0.34499283     0.10800
H1465       H  0.91499330  0.88586096  0.26844754     0.10500
H1466       H  0.94409042  0.91680011  0.24943501     0.11600
H1467       H  0.86592528  0.89728645  0.33764673     0.11700
H1468       H  0.89544615  0.85842199  0.29877262     0.13600
H1469       H  0.86997788  0.82228359  0.28681272     0.10100
H1470       H  0.83889178  0.79262367  0.30411158     0.12200
H1471       H  0.81831218  0.83927932  0.38840464     0.08800
H1472       H  0.84968058  0.86876511  0.37140992     0.11600
C1473       C  0.06424757  0.93921034  0.27247062    -0.03000
C1474       C  0.06146789  0.91627762  0.25656353    -0.05600
C1475       C  0.07716637  0.89678094  0.26469297    -0.20700
C1476       C  0.09575992  0.89962816  0.28919883     0.25000
C1477       C  0.09885387  0.92271525  0.30461845    -0.18300
C1478       C  0.08326907  0.94221859  0.29638017    -0.08200
C1479       C  0.11209690  0.87844551  0.29705547    -0.18500
C1480       C  0.12423841  0.87595987  0.32685354    -0.23300
C1481       C  0.14148703  0.85548736  0.33492139     0.27100
C1482       C  0.15733568  0.85814049  0.36293810    -0.20100
C1483       C  0.17429124  0.83979690  0.37124668    -0.09700
C1484       C  0.17575233  0.81820969  0.35179006    -0.10300
C1485       C  0.15954664  0.81527272  0.32417872    -0.03200
C1486       C  0.14256228  0.83361257  0.31587928    -0.18300
H1487       H  0.04705088  0.91331867  0.23799275     0.10800
H1488       H  0.07456538  0.87929529  0.25211431     0.10800
H1489       H  0.11349268  0.92599636  0.32267996     0.10500
H1490       H  0.08602680  0.95964062  0.30904961     0.11600
H1491       H  0.11383554  0.86454793  0.27749292     0.11700
H1492       H  0.12187566  0.88983651  0.34638603     0.13600
H1493       H  0.15684226  0.87466199  0.37824985     0.10100
H1494       H  0.18643539  0.84267170  0.39273281     0.12200
H1495       H  0.16001883  0.79878404  0.30881463     0.08800
H1496       H  0.13031858  0.83031797  0.29472371     0.11600
C1497       C  0.19438110  0.17834429  0.14355107    -0.03000
C1498       C  0.20269301  0.15710330  0.16030155    -0.05600
C1499       C  0.18603098  0.13942856  0.17186126    -0.20700
C1500       C  0.16063447  0.14266948  0.16748566     0.25000
C1501       C  0.15231603  0.16338648  0.14937855    -0.18300
C1502       C  0.16902777  0.18100780  0.13754264    -0.08200
C1503       C  0.14357654  0.12402144  0.18208068    -0.18500
C1504       C  0.12008910  0.12895812  0.19071462    -0.23300
C1505       C  0.10281193  0.11045974  0.20502209     0.27100
C1506       C  0.07756133  0.11387396  0.19967293    -0.20100
C1507       C  0.06054784  0.09669994  0.21144714    -0.09700
C1508       C  0.06829805  0.07581508  0.22948670    -0.10300
C1509       C  0.09349754  0.07285959  0.23630989    -0.03200
C1510       C  0.11065182  0.08997215  0.22404635    -0.18300
H1511       H  0.22211168  0.15431721  0.16507304     0.10800
H1512       H  0.19298949  0.12348247  0.18518451     0.10800
H1513       H  0.13296791  0.16611877  0.14424895     0.10500
H1514       H  0.16201847  0.19704591  0.12451152     0.11600
H1515       H  0.15094184  0.10582125  0.18664073     0.11700
H1516       H  0.11274041  0.14717019  0.18626234     0.13600
H1517       H  0.07098113  0.12963051  0.18556218     0.10100
H1518       H  0.04123464  0.09968279  0.20608234     0.12200
H1519       H  0.09998837  0.05701800  0.25028703     0.08800
H1520       H  0.12992228  0.08715015  0.22964883     0.11600
loop_ 
_geom_bond_atom_site_label_1 
_geom_bond_atom_site_label_2 
_geom_bond_distance 
_geom_bond_site_symmetry_2 
_ccdc_geom_bond_type 
O1           C17   1.270       .  A
O1           Zn7   1.983       .  S
C2           O18   1.271       .  A
C2           O15   1.277       .  A
C2         C1508   1.483       .  S
O3           C16   1.279       .  A
O3          Cd10   2.100       .  S
O4           C22   1.276       .  A
O4          Cd13   2.068   1_565  S
O5           C19   1.276   1_655  A
O5           Cd9   2.068       .  S
O6           C17   1.276       .  A
O6           Cd9   2.094       .  S
Zn7          O18   1.994   1_655  S
Zn7          O20   1.983       .  S
Zn7          O12   1.919   1_655  S
O8           C19   1.276       .  A
O8          Cd13   2.067       .  S
Cd9          O11   2.067   1_545  S
Cd9          O12   2.006   1_655  S
Cd10         O14   2.094       .  S
Cd10         O23   2.083   1_655  S
Cd10         O12   2.016   1_665  S
O11          C21   1.275       .  A
O12         Cd13   2.006       .  S
Cd13         O15   2.098       .  S
O14          C21   1.278       .  A
C16          O20   1.271   1_565  A
C16        C1401   1.480       .  S
C17        C1436   1.479       .  S
C19        C1388   1.480       .  S
C21        C1449   1.488       .  S
C22          O23   1.277       .  A
C22        C1473   1.485       .  S
O24          C40   1.270       .  A
O24         Zn30   1.989   1_655  S
C25          O41   1.270       .  A
C25          O38   1.276       .  A
C25        C1340   1.482       .  S
O26          C39   1.280   1_455  A
O26         Cd33   2.113       .  S
O27          C45   1.275       .  A
O27         Cd36   2.064   1_545  S
O28          C42   1.275       .  A
O28         Cd32   2.066       .  S
O29          C40   1.273       .  A
O29         Cd32   2.084       .  S
Zn30         O41   1.987       .  S
Zn30         O43   1.969   1_455  S
Zn30         O35   1.915   1_565  S
O31          C42   1.275   1_455  A
O31         Cd36   2.062       .  S
Cd32         O34   2.049   1_565  S
Cd32         O35   2.001   1_665  S
Cd33         O37   2.102   1_455  S
Cd33         O46   2.102       .  S
Cd33         O35   2.024       .  S
O34          C44   1.274       .  A
O35         Cd36   2.000   1_545  S
Cd36         O38   2.088       .  S
O37          C44   1.279       .  A
C39          O43   1.270   1_545  A
C39        C1412   1.483       .  S
C40        C1305   1.477       .  S
C42        C1377   1.479       .  S
C44        C1281   1.481       .  S
C45          O46   1.280       .  A
C45        C1353   1.487       .  S
O47          C63   1.272       .  A
O47         Zn53   1.999       .  S
C48          O64   1.271       .  A
C48          O61   1.277       .  A
C48        C1257   1.486       .  S
O49          C62   1.278       .  A
O49         Cd56   2.097       .  S
O50          C68   1.276       .  A
O50         Cd59   2.069       .  S
O51          C65   1.275       .  A
O51         Cd55   2.060       .  S
O52          C63   1.276       .  A
O52         Cd55   2.094       .  S
Zn53         O64   1.996       .  S
Zn53         O66   1.972       .  S
Zn53         O58   1.919       .  S
O54          C65   1.277       .  A
O54         Cd59   2.077       .  S
Cd55         O57   2.064       .  S
Cd55         O58   2.002       .  S
Cd56         O60   2.093       .  S
Cd56         O69   2.094       .  S
Cd56         O58   2.022       .  S
O57          C67   1.275       .  A
O58         Cd59   2.007       .  S
Cd59         O61   2.100       .  S
O60          C67   1.278       .  A
C62          O66   1.270       .  A
C62        C1172   1.477   1_554  S
C63        C1244   1.486       .  S
C65        C1196   1.478       .  S
C67        C1209   1.483       .  S
C68          O69   1.279       .  A
C68        C1497   1.487       .  S
O70          C86   1.273       .  A
O70         Zn76   2.009       .  S
C71          O87   1.274       .  A
C71          O84   1.277       .  A
C71        C1137   1.488       .  S
O72          C85   1.278       .  A
O72         Cd79   2.096       .  S
O73          C91   1.276       .  A
O73         Cd82   2.070       .  S
O74          C88   1.275       .  A
O74         Cd78   2.064       .  S
O75          C86   1.276       .  A
O75         Cd78   2.086       .  S
Zn76         O87   2.016       .  S
Zn76         O89   1.977       .  S
Zn76         O81   1.928       .  S
O77          C88   1.275       .  A
O77         Cd82   2.063       .  S
Cd78         O80   2.062       .  S
Cd78         O81   2.001       .  S
Cd79         O83   2.093       .  S
Cd79         O92   2.092       .  S
Cd79         O81   2.022       .  S
O80          C90   1.274       .  A
O81         Cd82   2.001       .  S
Cd82         O84   2.091       .  S
O83          C90   1.278       .  A
C85          O89   1.271       .  A
C85        C1185   1.481       .  S
C86        C1113   1.486       .  S
C88        C1161   1.478       .  S
C90        C1100   1.483       .  S
C91          O92   1.278       .  A
C91        C1364   1.485       .  S
O93         C109   1.273       .  A
O93         Zn99   2.007       .  S
C94         O110   1.274       .  A
C94         O107   1.274       .  A
C94        C1484   1.486       .  S
O95         C108   1.280       .  A
O95        Cd102   2.104       .  S
O96         C114   1.274       .  A
O96        Cd105   2.057       .  S
O97         C111   1.276       .  A
O97        Cd101   2.071       .  S
O98         C109   1.277       .  A
O98        Cd101   2.095       .  S
Zn99        O110   2.021       .  S
Zn99        O112   1.980       .  S
Zn99        O104   1.928       .  S
O100        C111   1.274       .  A
O100       Cd105   2.057       .  S
Cd101       O103   2.057       .  S
Cd101       O104   2.004       .  S
Cd102       O106   2.105       .  S
Cd102       O115   2.102       .  S
Cd102       O104   2.026       .  S
O103        C113   1.274       .  A
O104       Cd105   1.995       .  S
Cd105       O107   2.074       .  S
O106        C113   1.280       .  A
C108        O112   1.272       .  A
C108        C993   1.479       .  S
C109       C1017   1.481       .  S
C111        C969   1.476       .  S
C113       C1041   1.488       .  S
C114        O115   1.279       .  A
C114       C1076   1.485       .  S
O116        C132   1.273       .  A
O116       Zn122   2.006       .  S
C117        O133   1.272       .  A
C117        O130   1.276       .  A
C117       C1329   1.481       .  S
O118        C131   1.277       .  A
O118       Cd125   2.097       .  S
O119        C137   1.275       .  A
O119       Cd128   2.061       .  S
O120        C134   1.276       .  A
O120       Cd124   2.070       .  S
O121        C132   1.277       .  A
O121       Cd124   2.090       .  S
Zn122       O133   2.003       .  S
Zn122       O135   1.973       .  S
Zn122       O127   1.921       .  S
O123        C134   1.276       .  A
O123       Cd128   2.069       .  S
Cd124       O126   2.063       .  S
Cd124       O127   2.000       .  S
Cd125       O129   2.082       .  S
Cd125       O138   2.089       .  S
Cd125       O127   2.021       .  S
O126        C136   1.275       .  A
O127       Cd128   1.998       .  S
Cd128       O130   2.082       .  S
O129        C136   1.277       .  A
C131        O135   1.270       .  A
C131        C980   1.477       .  S
C132        C908   1.486       .  S
C134       C1004   1.482   1_556  S
C136        C932   1.484       .  S
C137        O138   1.278       .  A
C137        C945   1.485       .  S
O139        C155   1.270       .  A
O139       Zn145   1.987       .  S
C140        O156   1.270       .  A
C140        O153   1.277       .  A
C140        C956   1.483       .  S
O141        C154   1.278       .  A
O141       Cd148   2.103       .  S
O142        C160   1.275       .  A
O142       Cd151   2.064   1_545  S
O143        C157   1.278       .  A
O143       Cd147   2.083       .  S
O144        C155   1.279       .  A
O144       Cd147   2.108   1_556  S
Zn145       O156   1.989       .  S
Zn145       O158   1.976       .  S
Zn145       O150   1.916       .  S
O146        C157   1.276       .  A
O146       Cd151   2.070       .  S
Cd147       O149   2.071   1_565  S
Cd147       O150   2.010   1_554  S
Cd148       O152   2.080       .  S
Cd148       O161   2.095       .  S
Cd148       O150   2.021   1_545  S
O149        C159   1.276   1_554  A
O150       Cd151   2.003   1_556  S
Cd151       O153   2.095   1_554  S
O152        C159   1.277       .  A
C154        O158   1.271   1_545  A
C154        C812   1.481       .  S
C155        C849   1.486       .  S
C157        C825   1.487       .  S
C159        C873   1.485   1_556  S
C160        O161   1.278   1_554  A
C160       C1268   1.488       .  S
O162        C178   1.271       .  A
O162       Zn168   1.999       .  S
C163        O179   1.272       .  A
C163        O176   1.277       .  A
C163       C1065   1.486       .  S
O164        C177   1.279       .  A
O164       Cd171   2.104       .  S
O165        C183   1.276       .  A
O165       Cd174   2.070   1_545  S
O166        C180   1.275       .  A
O166       Cd170   2.067       .  S
O167        C178   1.276       .  A
O167       Cd170   2.092       .  S
Zn168       O179   2.000       .  S
Zn168       O181   1.991       .  S
Zn168       O173   1.923       .  S
O169        C180   1.276       .  A
O169       Cd174   2.073       .  S
Cd170       O172   2.062   1_565  S
Cd170       O173   2.006       .  S
Cd171       O175   2.092       .  S
Cd171       O184   2.091       .  S
Cd171       O173   2.017   1_545  S
O172        C182   1.274       .  A
O173       Cd174   2.006       .  S
Cd174       O176   2.093       .  S
O175        C182   1.279       .  A
C177        O181   1.272   1_545  A
C177        C836   1.476       .  S
C178        C764   1.479       .  S
C180        C801   1.481       .  S
C182        C777   1.486       .  S
C183        O184   1.278       .  A
C183       C1148   1.488       .  S
O185        C201   1.272       .  A
O185       Zn191   2.005       .  S
C186        O202   1.271       .  A
C186        O199   1.276       .  A
C186        C705   1.481       .  S
O187        C200   1.278       .  A
O187       Cd194   2.108       .  S
O188        C206   1.275       .  A
O188       Cd197   2.063       .  S
O189        C203   1.276       .  A
O189       Cd193   2.073       .  S
O190        C201   1.277       .  A
O190       Cd193   2.093       .  S
Zn191       O202   1.993       .  S
Zn191       O204   1.965       .  S
Zn191       O196   1.915       .  S
O192        C203   1.276       .  A
O192       Cd197   2.068       .  S
Cd193       O195   2.056       .  S
Cd193       O196   1.998       .  S
Cd194       O198   2.091       .  S
Cd194       O207   2.097       .  S
Cd194       O196   2.026       .  S
O195        C205   1.275       .  A
O196       Cd197   1.999       .  S
Cd197       O199   2.088       .  S
O198        C205   1.279       .  A
C200        O204   1.269       .  A
C200        C681   1.479       .  S
C201       C1460   1.487       .  S
C203        C668   1.480       .  S
C205        C753   1.484       .  S
C206        O207   1.279       .  A
C206        C729   1.485       .  S
O208        C224   1.272       .  A
O208       Zn214   2.005       .  S
C209        O225   1.272       .  A
C209        O222   1.278       .  A
C209        C609   1.481       .  S
O210        C223   1.280       .  A
O210       Cd217   2.110       .  S
O211        C229   1.276       .  A
O211       Cd220   2.060       .  S
O212        C226   1.274       .  A
O212       Cd216   2.050       .  S
O213        C224   1.272       .  A
O213       Cd216   2.065       .  S
Zn214       O225   1.997       .  S
Zn214       O227   1.979       .  S
Zn214       O219   1.923       .  S
O215        C226   1.277       .  A
O215       Cd220   2.082       .  S
Cd216       O218   2.045       .  S
Cd216       O219   1.990       .  S
Cd217       O221   2.103       .  S
Cd217       O230   2.100       .  S
Cd217       O219   2.026       .  S
O218        C228   1.272       .  A
O219       Cd220   2.007       .  S
Cd220       O222   2.104       .  S
O221        C228   1.278       .  A
C223        O227   1.271       .  A
C223        C657   1.483       .  S
C224       C1316   1.479       .  S
C226        C692   1.480   1_556  S
C228        C860   1.485       .  S
C229        O230   1.280       .  A
C229        C633   1.488       .  S
O231        C247   1.272       .  A
O231       Zn237   2.005       .  S
C232        O248   1.271       .  A
C232        O245   1.276       .  A
C232        C585   1.483       .  S
O233        C246   1.279       .  A
O233       Cd240   2.111       .  S
O234        C252   1.275       .  A
O234       Cd243   2.062       .  S
O235        C249   1.275       .  A
O235       Cd239   2.064       .  S
O236        C247   1.275       .  A
O236       Cd239   2.083       .  S
Zn237       O248   1.984       .  S
Zn237       O250   1.965       .  S
Zn237       O242   1.917       .  S
O238        C249   1.277       .  A
O238       Cd243   2.078       .  S
Cd239       O241   2.056       .  S
Cd239       O242   1.997       .  S
Cd240       O244   2.093       .  S
Cd240       O253   2.099       .  S
Cd240       O242   2.027       .  S
O241        C251   1.274       .  A
O242       Cd243   2.006       .  S
Cd243       O245   2.093       .  S
O244        C251   1.279       .  A
C246        O250   1.269       .  A
C246        C524   1.481       .  S
C247        C884   1.485       .  S
C249        C548   1.481       .  S
C251       C1425   1.484       .  S
C252        O253   1.279       .  A
C252        C561   1.486       .  S
O254        C270   1.271       .  A
O254       Zn260   1.984       .  S
C255        O271   1.271       .  A
C255        O268   1.276       .  A
C255        C489   1.486       .  S
O256        C269   1.278       .  A
O256       Cd263   2.105       .  S
O257        C275   1.275       .  A
O257       Cd266   2.062       .  S
O258        C272   1.277       .  A
O258       Cd262   2.078       .  S
O259        C270   1.278       .  A
O259       Cd262   2.104       .  S
Zn260       O271   1.997       .  S
Zn260       O273   1.964       .  S
Zn260       O265   1.913       .  S
O261        C272   1.276       .  A
O261       Cd266   2.068       .  S
Cd262       O264   2.068       .  S
Cd262       O265   2.007       .  S
Cd263       O267   2.086       .  S
Cd263       O276   2.085       .  S
Cd263       O265   2.024       .  S
O264        C274   1.276       .  A
O265       Cd266   2.002       .  S
Cd266       O268   2.092       .  S
O267        C274   1.278       .  A
C269        O273   1.269       .  A
C269        C537   1.481       .  S
C270        C788   1.486       .  S
C272        C513   1.481       .  S
C274       C1292   1.486       .  S
C275        O276   1.277       .  A
C275        C476   1.480       .  S
O277        C293   1.271       .  A
O277       Zn283   2.000       .  S
C278        O294   1.269       .  A
C278        O291   1.276   1_554  A
C278        C596   1.481       .  S
O279        C292   1.280       .  A
O279       Cd286   2.115       .  S
O280        C298   1.275       .  A
O280       Cd289   2.059       .  S
O281        C295   1.275       .  A
O281       Cd285   2.062       .  S
O282        C293   1.275   1_556  A
O282       Cd285   2.089       .  S
Zn283       O294   1.978       .  S
Zn283       O296   1.966       .  S
Zn283       O288   1.911       .  S
O284        C295   1.277       .  A
O284       Cd289   2.076       .  S
Cd285       O287   2.044       .  S
Cd285       O288   1.994   1_556  S
Cd286       O290   2.104       .  S
Cd286       O299   2.101       .  S
Cd286       O288   2.027       .  S
O287        C297   1.273       .  A
O288       Cd289   2.005   1_554  S
Cd289       O291   2.095       .  S
O290        C297   1.280   1_554  A
C292        O296   1.270       .  A
C292        C441   1.486       .  S
C293       C1233   1.478       .  S
C295        C428   1.480       .  S
C297        C921   1.482       .  S
C298        O299   1.279   1_556  A
C298        C644   1.482       .  S
O300        C316   1.272       .  A
O300       Zn306   2.000       .  S
C301        O317   1.271       .  A
C301        O314   1.278       .  A
C301        C500   1.488       .  S
O302        C315   1.279       .  A
O302       Cd309   2.111       .  S
O303        C321   1.276       .  A
O303       Cd312   2.066       .  S
O304        C318   1.274       .  A
O304       Cd308   2.063       .  S
O305        C316   1.277       .  A
O305       Cd308   2.092       .  S
Zn306       O317   1.993       .  S
Zn306       O319   1.961       .  S
Zn306       O311   1.916       .  S
O307        C318   1.277       .  A
O307       Cd312   2.080       .  S
Cd308       O310   2.053       .  S
Cd308       O311   1.996       .  S
Cd309       O313   2.107       .  S
Cd309       O322   2.097       .  S
Cd309       O311   2.032       .  S
O310        C320   1.274       .  A
O311       Cd312   2.011       .  S
Cd312       O314   2.106       .  S
O313        C320   1.280       .  A
C315        O319   1.269       .  A
C315        C417   1.482       .  S
C316       C1124   1.485       .  S
C318        C452   1.480       .  S
C320       C1052   1.484       .  S
C321        O322   1.280       .  A
C321        C740   1.485       .  S
O323        C339   1.271       .  A
O323       Zn329   1.988       .  S
C324        O340   1.271       .  A
C324        O337   1.276       .  A
C324        C716   1.484       .  S
O325        C338   1.278       .  A
O325       Cd332   2.102   1_455  S
O326        C344   1.275       .  A
O326       Cd335   2.069       .  S
O327        C341   1.277   1_455  A
O327       Cd331   2.074       .  S
O328        C339   1.278       .  A
O328       Cd331   2.110       .  S
Zn329       O340   1.994   1_455  S
Zn329       O342   1.967       .  S
Zn329       O334   1.914       .  S
O330        C341   1.276       .  A
O330       Cd335   2.061       .  S
Cd331       O333   2.069       .  S
Cd331       O334   2.010       .  S
Cd332       O336   2.091   1_655  S
Cd332       O345   2.090       .  S
Cd332       O334   2.021   1_655  S
O333        C343   1.276       .  A
O334       Cd335   2.004   1_455  S
Cd335       O337   2.090       .  S
O336        C343   1.278       .  A
C338        O342   1.269       .  A
C338        C369   1.482       .  S
C339       C1028   1.489       .  S
C341        C393   1.479       .  S
C343       C1220   1.486       .  S
C344        O345   1.278       .  A
C344        C572   1.488       .  S
O346        C362   1.271       .  A
O346       Zn352   1.990   1_455  S
C347        O363   1.271       .  A
C347        O360   1.277       .  A
C347        C620   1.486       .  S
O348        C361   1.277       .  A
O348       Cd355   2.101       .  S
O349        C367   1.274       .  A
O349       Cd358   2.056       .  S
O350        C364   1.276   1_455  A
O350       Cd354   2.068       .  S
O351        C362   1.276       .  A
O351       Cd354   2.093       .  S
Zn352       O363   1.993       .  S
Zn352       O365   1.964       .  S
Zn352       O357   1.914       .  S
O353        C364   1.276       .  A
O353       Cd358   2.073       .  S
Cd354       O356   2.069       .  S
Cd354       O357   2.003   1_455  S
Cd355       O359   2.087   1_655  S
Cd355       O368   2.091       .  S
Cd355       O357   2.024       .  S
O356        C366   1.276       .  A
O357       Cd358   2.003       .  S
Cd358       O360   2.100       .  S
O359        C366   1.278       .  A
C361        O365   1.269       .  A
C361        C404   1.477       .  S
C362        C897   1.483       .  S
C364        C380   1.478   1_655  S
C366       C1089   1.485       .  S
C367        O368   1.279       .  A
C367        C465   1.484       .  S
C369        C370   1.405   1_455  A
C369        C374   1.407       .  A
C370        C371   1.405       .  A
C370        H383   1.083       .  S
C371        C372   1.407       .  A
C371        H384   1.083       .  S
C372        C373   1.403   1_655  A
C372        C375   1.485       .  S
C373        C374   1.389       .  A
C373        H385   1.082       .  S
C374        H386   1.083       .  S
C375        C376   1.348   1_655  D
C375        H387   1.086       .  S
C376        C377   1.481       .  S
C376        H388   1.086       .  S
C377        C378   1.403       .  A
C377        C382   1.406   1_455  A
C378        C379   1.397       .  A
C378        H389   1.083       .  S
C379        C380   1.404       .  A
C379        H390   1.083       .  S
C380        C381   1.406   1_455  A
C381        C382   1.398       .  A
C381        H391   1.083       .  S
C382        H392   1.082       .  S
C393        C394   1.405       .  A
C393        C398   1.406   1_655  A
C394        C395   1.395       .  A
C394        H407   1.083       .  S
C395        C396   1.402       .  A
C395        H408   1.084       .  S
C396        C397   1.407   1_655  A
C396        C399   1.481       .  S
C397        C398   1.399       .  A
C397        H409   1.082       .  S
C398        H410   1.083       .  S
C399        C400   1.348   1_654  D
C399        H411   1.085   1_554  S
C400        C401   1.486   1_455  S
C400        H412   1.085   1_556  S
C401        C402   1.407   1_655  A
C401        C406   1.404       .  A
C402        C403   1.404       .  A
C402        H413   1.083       .  S
C403        C404   1.404   1_455  A
C403        H414   1.083       .  S
C404        C405   1.405       .  A
C405        C406   1.388       .  A
C405        H415   1.083       .  S
C406        H416   1.081       .  S
C417        C418   1.405       .  A
C417        C422   1.407       .  A
C418        C419   1.406       .  A
C418        H431   1.083       .  S
C419        C420   1.407       .  A
C419        H432   1.083       .  S
C420        C421   1.402       .  A
C420        C423   1.484       .  S
C421        C422   1.388       .  A
C421        H433   1.082       .  S
C422        H434   1.083       .  S
C423        C424   1.349       .  D
C423        H435   1.086       .  S
C424        C425   1.481       .  S
C424        H436   1.086       .  S
C425        C426   1.403       .  A
C425        C430   1.405       .  A
C426        C427   1.397       .  A
C426        H437   1.083       .  S
C427        C428   1.404       .  A
C427        H438   1.083       .  S
C428        C429   1.407       .  A
C429        C430   1.398       .  A
C429        H439   1.083       .  S
C430        H440   1.082       .  S
C441        C442   1.405       .  A
C441        C446   1.409       .  A
C442        C443   1.406       .  A
C442        H455   1.083       .  S
C443        C444   1.407       .  A
C443        H456   1.083       .  S
C444        C445   1.403       .  A
C444        C447   1.487       .  S
C445        C446   1.391       .  A
C445        H457   1.082       .  S
C446        H458   1.083       .  S
C447        C448   1.350       .  D
C447        H459   1.086       .  S
C448        C449   1.484       .  S
C448        H460   1.086       .  S
C449        C450   1.404       .  A
C449        C454   1.405       .  A
C450        C451   1.400       .  A
C450        H461   1.083       .  S
C451        C452   1.404       .  A
C451        H462   1.083       .  S
C452        C453   1.407       .  A
C453        C454   1.398       .  A
C453        H463   1.083       .  S
C454        H464   1.082       .  S
C465        C466   1.406       .  A
C465        C470   1.407       .  A
C466        C467   1.401       .  A
C466        H479   1.083       .  S
C467        C468   1.405       .  A
C467        H480   1.083       .  S
C468        C469   1.406       .  A
C468        C471   1.488       .  S
C469        C470   1.395       .  A
C469        H481   1.081       .  S
C470        H482   1.083       .  S
C471        C472   1.348       .  D
C471        H483   1.086       .  S
C472        C473   1.484       .  S
C472        H484   1.085       .  S
C473        C474   1.402       .  A
C473        C478   1.408       .  A
C474        C475   1.396       .  A
C474        H485   1.083       .  S
C475        C476   1.405       .  A
C475        H486   1.083       .  S
C476        C477   1.406       .  A
C477        C478   1.401       .  A
C477        H487   1.083       .  S
C478        H488   1.082       .  S
C489        C490   1.407       .  A
C489        C494   1.406       .  A
C490        C491   1.396       .  A
C490        H503   1.083       .  S
C491        C492   1.401       .  A
C491        H504   1.083       .  S
C492        C493   1.410       .  A
C492        C495   1.490       .  S
C493        C494   1.404       .  A
C493        H505   1.082       .  S
C494        H506   1.083       .  S
C495        C496   1.345       .  D
C495        H507   1.086       .  S
C496        C497   1.488       .  S
C496        H508   1.085       .  S
C497        C498   1.400       .  A
C497        C502   1.410       .  A
C498        C499   1.395       .  A
C498        H509   1.083       .  S
C499        C500   1.408       .  A
C499        H510   1.083       .  S
C500        C501   1.406       .  A
C501        C502   1.405       .  A
C501        H511   1.083       .  S
C502        H512   1.082       .  S
C513        C514   1.405       .  A
C513        C518   1.406       .  A
C514        C515   1.397       .  A
C514        H527   1.083       .  S
C515        C516   1.404       .  A
C515        H528   1.083       .  S
C516        C517   1.407       .  A
C516        C519   1.485       .  S
C517        C518   1.399       .  A
C517        H529   1.082       .  S
C518        H530   1.083       .  S
C519        C520   1.350       .  D
C519        H531   1.084       .  S
C520        C521   1.490       .  S
C520        H532   1.085       .  S
C521        C522   1.409       .  A
C521        C526   1.405       .  A
C522        C523   1.405       .  A
C522        H533   1.083       .  S
C523        C524   1.404   1_556  A
C523        H534   1.083       .  S
C524        C525   1.406   1_554  A
C525        C526   1.390       .  A
C525        H535   1.083       .  S
C526        H536   1.081       .  S
C537        C538   1.404       .  A
C537        C542   1.407       .  A
C538        C539   1.404       .  A
C538        H551   1.083       .  S
C539        C540   1.407       .  A
C539        H552   1.083       .  S
C540        C541   1.403       .  A
C540        C543   1.485       .  S
C541        C542   1.390       .  A
C541        H553   1.082       .  S
C542        H554   1.083       .  S
C543        C544   1.348       .  D
C543        H555   1.086       .  S
C544        C545   1.480       .  S
C544        H556   1.086       .  S
C545        C546   1.402       .  A
C545        C550   1.405       .  A
C546        C547   1.397       .  A
C546        H557   1.084       .  S
C547        C548   1.407       .  A
C547        H558   1.083       .  S
C548        C549   1.406       .  A
C549        C550   1.398       .  A
C549        H559   1.083       .  S
C550        H560   1.083       .  S
C561        C562   1.407       .  A
C561        C566   1.407       .  A
C562        C563   1.396       .  A
C562        H575   1.083       .  S
C563        C564   1.402       .  A
C563        H576   1.083       .  S
C564        C565   1.409       .  A
C564        C567   1.489       .  S
C565        C566   1.404       .  A
C565        H577   1.082       .  S
C566        H578   1.083       .  S
C567        C568   1.348       .  D
C567        H579   1.085       .  S
C568        C569   1.492       .  S
C568        H580   1.086       .  S
C569        C570   1.405       .  A
C569        C574   1.408       .  A
C570        C571   1.401       .  A
C570        H581   1.083       .  S
C571        C572   1.406       .  A
C571        H582   1.083       .  S
C572        C573   1.407       .  A
C573        C574   1.399       .  A
C573        H583   1.083       .  S
C574        H584   1.081       .  S
C585        C586   1.407       .  A
C585        C590   1.406       .  A
C586        C587   1.392       .  A
C586        H599   1.083       .  S
C587        C588   1.399       .  A
C587        H600   1.084       .  S
C588        C589   1.410       .  A
C588        C591   1.485       .  S
C589        C590   1.404       .  A
C589        H601   1.082       .  S
C590        H602   1.083       .  S
C591        C592   1.343       .  D
C591        H603   1.087       .  S
C592        C593   1.484       .  S
C592        H604   1.086       .  S
C593        C594   1.398       .  A
C593        C598   1.411       .  A
C594        C595   1.392       .  A
C594        H605   1.084       .  S
C595        C596   1.408       .  A
C595        H606   1.083       .  S
C596        C597   1.404       .  A
C597        C598   1.403       .  A
C597        H607   1.083   1_554  S
C598        H608   1.082       .  S
C609        C610   1.405       .  A
C609        C614   1.405       .  A
C610        C611   1.395       .  A
C610        H623   1.083       .  S
C611        C612   1.401       .  A
C611        H624   1.084       .  S
C612        C613   1.409       .  A
C612        C615   1.486       .  S
C613        C614   1.405       .  A
C613        H625   1.082       .  S
C614        H626   1.083       .  S
C615        C616   1.349       .  D
C615        H627   1.085       .  S
C616        C617   1.491       .  S
C616        H628   1.086       .  S
C617        C618   1.407       .  A
C617        C622   1.406       .  A
C618        C619   1.404       .  A
C618        H629   1.083       .  S
C619        C620   1.406       .  A
C619        H630   1.083       .  S
C620        C621   1.407       .  A
C621        C622   1.396       .  A
C621        H631   1.083       .  S
C622        H632   1.081       .  S
C633        C634   1.406       .  A
C633        C638   1.408       .  A
C634        C635   1.404       .  A
C634        H647   1.083       .  S
C635        C636   1.406       .  A
C635        H648   1.083       .  S
C636        C637   1.406       .  A
C636        C639   1.492       .  S
C637        C638   1.396       .  A
C637        H649   1.081       .  S
C638        H650   1.083       .  S
C639        C640   1.349       .  D
C639        H651   1.086       .  S
C640        C641   1.487       .  S
C640        H652   1.085       .  S
C641        C642   1.402       .  A
C641        C646   1.409       .  A
C642        C643   1.395       .  A
C642        H653   1.084       .  S
C643        C644   1.405       .  A
C643        H654   1.083       .  S
C644        C645   1.406       .  A
C645        C646   1.405       .  A
C645        H655   1.083       .  S
C646        H656   1.082       .  S
C657        C658   1.404       .  A
C657        C662   1.407       .  A
C658        C659   1.404       .  A
C658        H671   1.083       .  S
C659        C660   1.407       .  A
C659        H672   1.083       .  S
C660        C661   1.406       .  A
C660        C663   1.490       .  S
C661        C662   1.393       .  A
C661        H673   1.081       .  S
C662        H674   1.083       .  S
C663        C664   1.350       .  D
C663        H675   1.086       .  S
C664        C665   1.486       .  S
C664        H676   1.084       .  S
C665        C666   1.404       .  A
C665        C670   1.407       .  A
C666        C667   1.397       .  A
C666        H677   1.083       .  S
C667        C668   1.404       .  A
C667        H678   1.083       .  S
C668        C669   1.406       .  A
C669        C670   1.399       .  A
C669        H679   1.083       .  S
C670        H680   1.082       .  S
C681        C682   1.404       .  A
C681        C686   1.405       .  A
C682        C683   1.406       .  A
C682        H695   1.083       .  S
C683        C684   1.408       .  A
C683        H696   1.083       .  S
C684        C685   1.405       .  A
C684        C687   1.487       .  S
C685        C686   1.388       .  A
C685        H697   1.081       .  S
C686        H698   1.084       .  S
C687        C688   1.348       .  D
C687        H699   1.085       .  S
C688        C689   1.482       .  S
C688        H700   1.085       .  S
C689        C690   1.402       .  A
C689        C694   1.407       .  A
C690        C691   1.394       .  A
C690        H701   1.084       .  S
C691        C692   1.405       .  A
C691        H702   1.083       .  S
C692        C693   1.406       .  A
C693        C694   1.400       .  A
C693        H703   1.083       .  S
C694        H704   1.082       .  S
C705        C706   1.407       .  A
C705        C710   1.405       .  A
C706        C707   1.395       .  A
C706        H719   1.083       .  S
C707        C708   1.400       .  A
C707        H720   1.083       .  S
C708        C709   1.409       .  A
C708        C711   1.483       .  S
C709        C710   1.402       .  A
C709        H721   1.082       .  S
C710        H722   1.083       .  S
C711        C712   1.344       .  D
C711        H723   1.086       .  S
C712        C713   1.485       .  S
C712        H724   1.086       .  S
C713        C714   1.400       .  A
C713        C718   1.409       .  A
C714        C715   1.394       .  A
C714        H725   1.083       .  S
C715        C716   1.407       .  A
C715        H726   1.083       .  S
C716        C717   1.406       .  A
C717        C718   1.402       .  A
C717        H727   1.083       .  S
C718        H728   1.082       .  S
C729        C730   1.408       .  A
C729        C734   1.406       .  A
C730        C731   1.397       .  A
C730        H743   1.083       .  S
C731        C732   1.400       .  A
C731        H744   1.083       .  S
C732        C733   1.409       .  A
C732        C735   1.486       .  S
C733        C734   1.403       .  A
C733        H745   1.083       .  S
C734        H746   1.083       .  S
C735        C736   1.345       .  D
C735        H747   1.086       .  S
C736        C737   1.486       .  S
C736        H748   1.087       .  S
C737        C738   1.401       .  A
C737        C742   1.409       .  A
C738        C739   1.396       .  A
C738        H749   1.083       .  S
C739        C740   1.407       .  A
C739        H750   1.083       .  S
C740        C741   1.406       .  A
C741        C742   1.404       .  A
C741        H751   1.083       .  S
C742        H752   1.082       .  S
C753        C754   1.407       .  A
C753        C758   1.406       .  A
C754        C755   1.396       .  A
C754        H767   1.083       .  S
C755        C756   1.401       .  A
C755        H768   1.083       .  S
C756        C757   1.409       .  A
C756        C759   1.486       .  S
C757        C758   1.402       .  A
C757        H769   1.082       .  S
C758        H770   1.083       .  S
C759        C760   1.347       .  D
C759        H771   1.085       .  S
C760        C761   1.487       .  S
C760        H772   1.085       .  S
C761        C762   1.402       .  A
C761        C766   1.410       .  A
C762        C763   1.396       .  A
C762        H773   1.083       .  S
C763        C764   1.405       .  A
C763        H774   1.083       .  S
C764        C765   1.404       .  A
C765        C766   1.402       .  A
C765        H775   1.083       .  S
C766        H776   1.082       .  S
C777        C778   1.405       .  A
C777        C782   1.409       .  A
C778        C779   1.399       .  A
C778        H791   1.083       .  S
C779        C780   1.405       .  A
C779        H792   1.083       .  S
C780        C781   1.406       .  A
C780        C783   1.489       .  S
C781        C782   1.400       .  A
C781        H793   1.081       .  S
C782        H794   1.083       .  S
C783        C784   1.352       .  D
C783        H795   1.084       .  S
C784        C785   1.492       .  S
C784        H796   1.084       .  S
C785        C786   1.408       .  A
C785        C790   1.406       .  A
C786        C787   1.404       .  A
C786        H797   1.083       .  S
C787        C788   1.405       .  A
C787        H798   1.083       .  S
C788        C789   1.407       .  A
C789        C790   1.394       .  A
C789        H799   1.083       .  S
C790        H800   1.081       .  S
C801        C802   1.405       .  A
C801        C806   1.407       .  A
C802        C803   1.397       .  A
C802        H815   1.083       .  S
C803        C804   1.403       .  A
C803        H816   1.083       .  S
C804        C805   1.406   1_565  A
C804        C807   1.482       .  S
C805        C806   1.398   1_545  A
C805        H817   1.082       .  S
C806        H818   1.083   1_565  S
C807        C808   1.348   1_565  D
C807        H819   1.086       .  S
C808        C809   1.485       .  S
C808        H820   1.086       .  S
C809        C810   1.407       .  A
C809        C814   1.403   1_545  A
C810        C811   1.405       .  A
C810        H821   1.083       .  S
C811        C812   1.406       .  A
C811        H822   1.083       .  S
C812        C813   1.406   1_545  A
C813        C814   1.390       .  A
C813        H823   1.083       .  S
C814        H824   1.082       .  S
C825        C826   1.407       .  A
C825        C830   1.406       .  A
C826        C827   1.399       .  A
C826        H839   1.083       .  S
C827        C828   1.404   1_565  A
C827        H840   1.083       .  S
C828        C829   1.409   1_545  A
C828        C831   1.492       .  S
C829        C830   1.400       .  A
C829        H841   1.080   1_565  S
C830        H842   1.083       .  S
C831        C832   1.347       .  D
C831        H843   1.086       .  S
C832        C833   1.485       .  S
C832        H844   1.084   1_545  S
C833        C834   1.401   1_545  A
C833        C838   1.410       .  A
C834        C835   1.394       .  A
C834        H845   1.084       .  S
C835        C836   1.404   1_565  A
C835        H846   1.083       .  S
C836        C837   1.404       .  A
C837        C838   1.405       .  A
C837        H847   1.083       .  S
C838        H848   1.082       .  S
C849        C850   1.408       .  A
C849        C854   1.405       .  A
C850        C851   1.395       .  A
C850        H863   1.083       .  S
C851        C852   1.400       .  A
C851        H864   1.083       .  S
C852        C853   1.411       .  A
C852        C855   1.488       .  S
C853        C854   1.405       .  A
C853        H865   1.082       .  S
C854        H866   1.083       .  S
C855        C856   1.346       .  D
C855        H867   1.084       .  S
C856        C857   1.491       .  S
C856        H868   1.085       .  S
C857        C858   1.401       .  A
C857        C862   1.412       .  A
C858        C859   1.395       .  A
C858        H869   1.083       .  S
C859        C860   1.407       .  A
C859        H870   1.083       .  S
C860        C861   1.405       .  A
C861        C862   1.404       .  A
C861        H871   1.083       .  S
C862        H872   1.081       .  S
C873        C874   1.406   1_554  A
C873        C878   1.407       .  A
C874        C875   1.400   1_556  A
C874        H887   1.083       .  S
C875        C876   1.405       .  A
C875        H888   1.083   1_554  S
C876        C877   1.407       .  A
C876        C879   1.490       .  S
C877        C878   1.398       .  A
C877        H889   1.081       .  S
C878        H890   1.083       .  S
C879        C880   1.351       .  D
C879        H891   1.081       .  S
C880        C881   1.494       .  S
C880        H892   1.084       .  S
C881        C882   1.407       .  A
C881        C886   1.409       .  A
C882        C883   1.400       .  A
C882        H893   1.083       .  S
C883        C884   1.404       .  A
C883        H894   1.083       .  S
C884        C885   1.407       .  A
C885        C886   1.398       .  A
C885        H895   1.083       .  S
C886        H896   1.079       .  S
C897        C898   1.407       .  A
C897        C902   1.406       .  A
C898        C899   1.394       .  A
C898        H911   1.083       .  S
C899        C900   1.400       .  A
C899        H912   1.083       .  S
C900        C901   1.410       .  A
C900        C903   1.486       .  S
C901        C902   1.403       .  A
C901        H913   1.082       .  S
C902        H914   1.083       .  S
C903        C904   1.344       .  D
C903        H915   1.086       .  S
C904        C905   1.486       .  S
C904        H916   1.086       .  S
C905        C906   1.400       .  A
C905        C910   1.409       .  A
C906        C907   1.395       .  A
C906        H917   1.083       .  S
C907        C908   1.407       .  A
C907        H918   1.083       .  S
C908        C909   1.407       .  A
C909        C910   1.403       .  A
C909        H919   1.083       .  S
C910        H920   1.082       .  S
C921        C922   1.406       .  A
C921        C926   1.406       .  A
C922        C923   1.393       .  A
C922        H935   1.083       .  S
C923        C924   1.401       .  A
C923        H936   1.084       .  S
C924        C925   1.409       .  A
C924        C927   1.485       .  S
C925        C926   1.404       .  A
C925        H937   1.082       .  S
C926        H938   1.083       .  S
C927        C928   1.347       .  D
C927        H939   1.085       .  S
C928        C929   1.489       .  S
C928        H940   1.086       .  S
C929        C930   1.405       .  A
C929        C934   1.407       .  A
C930        C931   1.402       .  A
C930        H941   1.083       .  S
C931        C932   1.407       .  A
C931        H942   1.083       .  S
C932        C933   1.406       .  A
C933        C934   1.395       .  A
C933        H943   1.083       .  S
C934        H944   1.081       .  S
C945        C946   1.407       .  A
C945        C950   1.406       .  A
C946        C947   1.396       .  A
C946        H959   1.083       .  S
C947        C948   1.402       .  A
C947        H960   1.083       .  S
C948        C949   1.409       .  A
C948        C951   1.488       .  S
C949        C950   1.402       .  A
C949        H961   1.081       .  S
C950        H962   1.083       .  S
C951        C952   1.347       .  D
C951        H963   1.085       .  S
C952        C953   1.488       .  S
C952        H964   1.085       .  S
C953        C954   1.401       .  A
C953        C958   1.410       .  A
C954        C955   1.395       .  A
C954        H965   1.083       .  S
C955        C956   1.407       .  A
C955        H966   1.083       .  S
C956        C957   1.404       .  A
C957        C958   1.402       .  A
C957        H967   1.083       .  S
C958        H968   1.081       .  S
C969        C970   1.404       .  A
C969        C974   1.406       .  A
C970        C971   1.395       .  A
C970        H983   1.083       .  S
C971        C972   1.403       .  A
C971        H984   1.084       .  S
C972        C973   1.407       .  A
C972        C975   1.482       .  S
C973        C974   1.398       .  A
C973        H985   1.081       .  S
C974        H986   1.083       .  S
C975        C976   1.348       .  D
C975        H987   1.085       .  S
C976        C977   1.486       .  S
C976        H988   1.085       .  S
C977        C978   1.407       .  A
C977        C982   1.405       .  A
C978        C979   1.404       .  A
C978        H989   1.083       .  S
C979        C980   1.404       .  A
C979        H990   1.083       .  S
C980        C981   1.405       .  A
C981        C982   1.389       .  A
C981        H991   1.083       .  S
C982        H992   1.081       .  S
C993        C994   1.404       .  A
C993        C998   1.406       .  A
C994        C995   1.404       .  A
C994       H1007   1.083       .  S
C995        C996   1.407       .  A
C995       H1008   1.083       .  S
C996        C997   1.404       .  A
C996        C999   1.486       .  S
C997        C998   1.391       .  A
C997       H1009   1.081       .  S
C998       H1010   1.083       .  S
C999       C1000   1.348       .  D
C999       H1011   1.086       .  S
C1000      C1001   1.482       .  S
C1000      H1012   1.086       .  S
C1001      C1002   1.402       .  A
C1001      C1006   1.406       .  A
C1002      C1003   1.397       .  A
C1002      H1013   1.083       .  S
C1003      C1004   1.406       .  A
C1003      H1014   1.083       .  S
C1004      C1005   1.407       .  A
C1005      C1006   1.398       .  A
C1005      H1015   1.083       .  S
C1006      H1016   1.082       .  S
C1017      C1018   1.404       .  A
C1017      C1022   1.406       .  A
C1018      C1019   1.396       .  A
C1018      H1031   1.083       .  S
C1019      C1020   1.402       .  A
C1019      H1032   1.083       .  S
C1020      C1021   1.408       .  A
C1020      C1023   1.486       .  S
C1021      C1022   1.405       .  A
C1021      H1033   1.082       .  S
C1022      H1034   1.083       .  S
C1023      C1024   1.350       .  D
C1023      H1035   1.085       .  S
C1024      C1025   1.493       .  S
C1024      H1036   1.086       .  S
C1025      C1026   1.407       .  A
C1025      C1030   1.405       .  A
C1026      C1027   1.406       .  A
C1026      H1037   1.083       .  S
C1027      C1028   1.406       .  A
C1027      H1038   1.083       .  S
C1028      C1029   1.408       .  A
C1029      C1030   1.395       .  A
C1029      H1039   1.083       .  S
C1030      H1040   1.082       .  S
C1041      C1042   1.408       .  A
C1041      C1046   1.406       .  A
C1042      C1043   1.397       .  A
C1042      H1055   1.083       .  S
C1043      C1044   1.401       .  A
C1043      H1056   1.083       .  S
C1044      C1045   1.409       .  A
C1044      C1047   1.489       .  S
C1045      C1046   1.405       .  A
C1045      H1057   1.082       .  S
C1046      H1058   1.083       .  S
C1047      C1048   1.345       .  D
C1047      H1059   1.087       .  S
C1048      C1049   1.486       .  S
C1048      H1060   1.086       .  S
C1049      C1050   1.400       .  A
C1049      C1054   1.410       .  A
C1050      C1051   1.395       .  A
C1050      H1061   1.083       .  S
C1051      C1052   1.407       .  A
C1051      H1062   1.083       .  S
C1052      C1053   1.406       .  A
C1053      C1054   1.406       .  A
C1053      H1063   1.083       .  S
C1054      H1064   1.083       .  S
C1065      C1066   1.407       .  A
C1065      C1070   1.406       .  A
C1066      C1067   1.395       .  A
C1066      H1079   1.083       .  S
C1067      C1068   1.402       .  A
C1067      H1080   1.084       .  S
C1068      C1069   1.411       .  A
C1068      C1071   1.492       .  S
C1069      C1070   1.404       .  A
C1069      H1081   1.081       .  S
C1070      H1082   1.083       .  S
C1071      C1072   1.348       .  D
C1071      H1083   1.083       .  S
C1072      C1073   1.495       .  S
C1072      H1084   1.085       .  S
C1073      C1074   1.404       .  A
C1073      C1078   1.412       .  A
C1074      C1075   1.397       .  A
C1074      H1085   1.084       .  S
C1075      C1076   1.406       .  A
C1075      H1086   1.083       .  S
C1076      C1077   1.404       .  A
C1077      C1078   1.403       .  A
C1077      H1087   1.083       .  S
C1078      H1088   1.080       .  S
C1089      C1090   1.406       .  A
C1089      C1094   1.407       .  A
C1090      C1091   1.401       .  A
C1090      H1103   1.083       .  S
C1091      C1092   1.404       .  A
C1091      H1104   1.083       .  S
C1092      C1093   1.405       .  A
C1092      C1095   1.486       .  S
C1093      C1094   1.398       .  A
C1093      H1105   1.082       .  S
C1094      H1106   1.083       .  S
C1095      C1096   1.348       .  D
C1095      H1107   1.086       .  S
C1096      C1097   1.486       .  S
C1096      H1108   1.086       .  S
C1097      C1098   1.405       .  A
C1097      C1102   1.405       .  A
C1098      C1099   1.402       .  A
C1098      H1109   1.083       .  S
C1099      C1100   1.405       .  A
C1099      H1110   1.083       .  S
C1100      C1101   1.407       .  A
C1101      C1102   1.398       .  A
C1101      H1111   1.083       .  S
C1102      H1112   1.082       .  S
C1113      C1114   1.406       .  A
C1113      C1118   1.408       .  A
C1114      C1115   1.401       .  A
C1114      H1127   1.083       .  S
C1115      C1116   1.405       .  A
C1115      H1128   1.083       .  S
C1116      C1117   1.406       .  A
C1116      C1119   1.488       .  S
C1117      C1118   1.398       .  A
C1117      H1129   1.082       .  S
C1118      H1130   1.083       .  S
C1119      C1120   1.349       .  D
C1119      H1131   1.085       .  S
C1120      C1121   1.488       .  S
C1120      H1132   1.086       .  S
C1121      C1122   1.405       .  A
C1121      C1126   1.406       .  A
C1122      C1123   1.401       .  A
C1122      H1133   1.083       .  S
C1123      C1124   1.405       .  A
C1123      H1134   1.083       .  S
C1124      C1125   1.408       .  A
C1125      C1126   1.398       .  A
C1125      H1135   1.083       .  S
C1126      H1136   1.082       .  S
C1137      C1138   1.405       .  A
C1137      C1142   1.407       .  A
C1138      C1139   1.402       .  A
C1138      H1151   1.083       .  S
C1139      C1140   1.407       .  A
C1139      H1152   1.083       .  S
C1140      C1141   1.409       .  A
C1140      C1143   1.496       .  S
C1141      C1142   1.399       .  A
C1141      H1153   1.080       .  S
C1142      H1154   1.083       .  S
C1143      C1144   1.352       .  D
C1143      H1155   1.085       .  S
C1144      C1145   1.493       .  S
C1144      H1156   1.083       .  S
C1145      C1146   1.406       .  A
C1145      C1150   1.408       .  A
C1146      C1147   1.401       .  A
C1146      H1157   1.083       .  S
C1147      C1148   1.406       .  A
C1147      H1158   1.083       .  S
C1148      C1149   1.408       .  A
C1149      C1150   1.400       .  A
C1149      H1159   1.083       .  S
C1150      H1160   1.081       .  S
C1161      C1162   1.405       .  A
C1161      C1166   1.406       .  A
C1162      C1163   1.396       .  A
C1162      H1175   1.083       .  S
C1163      C1164   1.402       .  A
C1163      H1176   1.083       .  S
C1164      C1165   1.405       .  A
C1164      C1167   1.478       .  S
C1165      C1166   1.397       .  A
C1165      H1177   1.082       .  S
C1166      H1178   1.083       .  S
C1167      C1168   1.347       .  D
C1167      H1179   1.086       .  S
C1168      C1169   1.482       .  S
C1168      H1180   1.086       .  S
C1169      C1170   1.406       .  A
C1169      C1174   1.404       .  A
C1170      C1171   1.403       .  A
C1170      H1181   1.083       .  S
C1171      C1172   1.404       .  A
C1171      H1182   1.083       .  S
C1172      C1173   1.406       .  A
C1173      C1174   1.389       .  A
C1173      H1183   1.083       .  S
C1174      H1184   1.082       .  S
C1185      C1186   1.405       .  A
C1185      C1190   1.407       .  A
C1186      C1187   1.403       .  A
C1186      H1199   1.083       .  S
C1187      C1188   1.406       .  A
C1187      H1200   1.083       .  S
C1188      C1189   1.404       .  A
C1188      C1191   1.484       .  S
C1189      C1190   1.391       .  A
C1189      H1201   1.082       .  S
C1190      H1202   1.083       .  S
C1191      C1192   1.347       .  D
C1191      H1203   1.086       .  S
C1192      C1193   1.479       .  S
C1192      H1204   1.086       .  S
C1193      C1194   1.401       .  A
C1193      C1198   1.406       .  A
C1194      C1195   1.396       .  A
C1194      H1205   1.083       .  S
C1195      C1196   1.406       .  A
C1195      H1206   1.083       .  S
C1196      C1197   1.406       .  A
C1197      C1198   1.398       .  A
C1197      H1207   1.083       .  S
C1198      H1208   1.083       .  S
C1209      C1210   1.405       .  A
C1209      C1214   1.407       .  A
C1210      C1211   1.403       .  A
C1210      H1223   1.083       .  S
C1211      C1212   1.406       .  A
C1211      H1224   1.083       .  S
C1212      C1213   1.405       .  A
C1212      C1215   1.487       .  S
C1213      C1214   1.397       .  A
C1213      H1225   1.082       .  S
C1214      H1226   1.083       .  S
C1215      C1216   1.349       .  D
C1215      H1227   1.086       .  S
C1216      C1217   1.487       .  S
C1216      H1228   1.086       .  S
C1217      C1218   1.405       .  A
C1217      C1222   1.405       .  A
C1218      C1219   1.402       .  A
C1218      H1229   1.083       .  S
C1219      C1220   1.406       .  A
C1219      H1230   1.083       .  S
C1220      C1221   1.407       .  A
C1221      C1222   1.398       .  A
C1221      H1231   1.083       .  S
C1222      H1232   1.082       .  S
C1233      C1234   1.404       .  A
C1233      C1238   1.405       .  A
C1234      C1235   1.395       .  A
C1234      H1247   1.083       .  S
C1235      C1236   1.402       .  A
C1235      H1248   1.083       .  S
C1236      C1237   1.408       .  A
C1236      C1239   1.484       .  S
C1237      C1238   1.404       .  A
C1237      H1249   1.083       .  S
C1238      H1250   1.083   1_554  S
C1239      C1240   1.348       .  D
C1239      H1251   1.085       .  S
C1240      C1241   1.490       .  S
C1240      H1252   1.086       .  S
C1241      C1242   1.406       .  A
C1241      C1246   1.405       .  A
C1242      C1243   1.404       .  A
C1242      H1253   1.083       .  S
C1243      C1244   1.406       .  A
C1243      H1254   1.083       .  S
C1244      C1245   1.407       .  A
C1245      C1246   1.395       .  A
C1245      H1255   1.083       .  S
C1246      H1256   1.082       .  S
C1257      C1258   1.408       .  A
C1257      C1262   1.405       .  A
C1258      C1259   1.397       .  A
C1258      H1271   1.083       .  S
C1259      C1260   1.401       .  A
C1259      H1272   1.084       .  S
C1260      C1261   1.410       .  A
C1260      C1263   1.490       .  S
C1261      C1262   1.403       .  A
C1261      H1273   1.082       .  S
C1262      H1274   1.083       .  S
C1263      C1264   1.348       .  D
C1263      H1275   1.084       .  S
C1264      C1265   1.492       .  S
C1264      H1276   1.085       .  S
C1265      C1266   1.402       .  A
C1265      C1270   1.410       .  A
C1266      C1267   1.397       .  A
C1266      H1277   1.083       .  S
C1267      C1268   1.407       .  A
C1267      H1278   1.083       .  S
C1268      C1269   1.407       .  A
C1269      C1270   1.404       .  A
C1269      H1279   1.083   1_554  S
C1270      H1280   1.081       .  S
C1281      C1282   1.405       .  A
C1281      C1286   1.406       .  A
C1282      C1283   1.393       .  A
C1282      H1295   1.083       .  S
C1283      C1284   1.401       .  A
C1283      H1296   1.084       .  S
C1284      C1285   1.409       .  A
C1284      C1287   1.485       .  S
C1285      C1286   1.405       .  A
C1285      H1297   1.082       .  S
C1286      H1298   1.083       .  S
C1287      C1288   1.347       .  D
C1287      H1299   1.085       .  S
C1288      C1289   1.490       .  S
C1288      H1300   1.086       .  S
C1289      C1290   1.404       .  A
C1289      C1294   1.407       .  A
C1290      C1291   1.402       .  A
C1290      H1301   1.083       .  S
C1291      C1292   1.407       .  A
C1291      H1302   1.083       .  S
C1292      C1293   1.406       .  A
C1293      C1294   1.396       .  A
C1293      H1303   1.083       .  S
C1294      H1304   1.081       .  S
C1305      C1306   1.405       .  A
C1305      C1310   1.406       .  A
C1306      C1307   1.392       .  A
C1306      H1319   1.083       .  S
C1307      C1308   1.399       .  A
C1307      H1320   1.083       .  S
C1308      C1309   1.408       .  A
C1308      C1311   1.480       .  S
C1309      C1310   1.403       .  A
C1309      H1321   1.083       .  S
C1310      H1322   1.083       .  S
C1311      C1312   1.344       .  D
C1311      H1323   1.085       .  S
C1312      C1313   1.485       .  S
C1312      H1324   1.086       .  S
C1313      C1314   1.403       .  A
C1313      C1318   1.407       .  A
C1314      C1315   1.399       .  A
C1314      H1325   1.083       .  S
C1315      C1316   1.406       .  A
C1315      H1326   1.083       .  S
C1316      C1317   1.405       .  A
C1317      C1318   1.396       .  A
C1317      H1327   1.083       .  S
C1318      H1328   1.082       .  S
C1329      C1330   1.405       .  A
C1329      C1334   1.407       .  A
C1330      C1331   1.400       .  A
C1330      H1343   1.083       .  S
C1331      C1332   1.405       .  A
C1331      H1344   1.083       .  S
C1332      C1333   1.406       .  A
C1332      C1335   1.485       .  S
C1333      C1334   1.396       .  A
C1333      H1345   1.082       .  S
C1334      H1346   1.083       .  S
C1335      C1336   1.349       .  D
C1335      H1347   1.086       .  S
C1336      C1337   1.485       .  S
C1336      H1348   1.086       .  S
C1337      C1338   1.405       .  A
C1337      C1342   1.405       .  A
C1338      C1339   1.401       .  A
C1338      H1349   1.083       .  S
C1339      C1340   1.405       .  A
C1339      H1350   1.083       .  S
C1340      C1341   1.407       .  A
C1341      C1342   1.394       .  A
C1341      H1351   1.083       .  S
C1342      H1352   1.082       .  S
C1353      C1354   1.405       .  A
C1353      C1358   1.408       .  A
C1354      C1355   1.403       .  A
C1354      H1367   1.083       .  S
C1355      C1356   1.406       .  A
C1355      H1368   1.083       .  S
C1356      C1357   1.405       .  A
C1356      C1359   1.489       .  S
C1357      C1358   1.398       .  A
C1357      H1369   1.082       .  S
C1358      H1370   1.083       .  S
C1359      C1360   1.350       .  D
C1359      H1371   1.086       .  S
C1360      C1361   1.488       .  S
C1360      H1372   1.086       .  S
C1361      C1362   1.405       .  A
C1361      C1366   1.406       .  A
C1362      C1363   1.402       .  A
C1362      H1373   1.083       .  S
C1363      C1364   1.406       .  A
C1363      H1374   1.083       .  S
C1364      C1365   1.407       .  A
C1365      C1366   1.399       .  A
C1365      H1375   1.083       .  S
C1366      H1376   1.082       .  S
C1377      C1378   1.406       .  A
C1377      C1382   1.406   1_655  A
C1378      C1379   1.397       .  A
C1378      H1391   1.083       .  S
C1379      C1380   1.402       .  A
C1379      H1392   1.083       .  S
C1380      C1381   1.406   1_655  A
C1380      C1383   1.482       .  S
C1381      C1382   1.396       .  A
C1381      H1393   1.082       .  S
C1382      H1394   1.083       .  S
C1383      C1384   1.347   1_665  D
C1383      H1395   1.086       .  S
C1384      C1385   1.480       .  S
C1384      H1396   1.085       .  S
C1385      C1386   1.402       .  A
C1385      C1390   1.406   1_455  A
C1386      C1387   1.397       .  A
C1386      H1397   1.083       .  S
C1387      C1388   1.406       .  A
C1387      H1398   1.083       .  S
C1388      C1389   1.406   1_455  A
C1389      C1390   1.396       .  A
C1389      H1399   1.083       .  S
C1390      H1400   1.082       .  S
C1401      C1402   1.403   1_655  A
C1401      C1406   1.406   1_565  A
C1402      C1403   1.402       .  A
C1402      H1415   1.083       .  S
C1403      C1404   1.408   1_455  A
C1403      H1416   1.083       .  S
C1404      C1405   1.406   1_565  A
C1404      C1407   1.490       .  S
C1405      C1406   1.394       .  A
C1405      H1417   1.080       .  S
C1406      H1418   1.083       .  S
C1407      C1408   1.353   1_564  D
C1407      H1419   1.083       .  S
C1408      C1409   1.491       .  S
C1408      H1420   1.084   1_556  S
C1409      C1410   1.409   1_655  A
C1409      C1414   1.405   1_545  A
C1410      C1411   1.404       .  A
C1410      H1421   1.083       .  S
C1411      C1412   1.403   1_455  A
C1411      H1422   1.083       .  S
C1412      C1413   1.408   1_545  A
C1413      C1414   1.393       .  A
C1413      H1423   1.083       .  S
C1414      H1424   1.080       .  S
C1425      C1426   1.407       .  A
C1425      C1430   1.405       .  A
C1426      C1427   1.396       .  A
C1426      H1439   1.083       .  S
C1427      C1428   1.401       .  A
C1427      H1440   1.084       .  S
C1428      C1429   1.410       .  A
C1428      C1431   1.488       .  S
C1429      C1430   1.401       .  A
C1429      H1441   1.081       .  S
C1430      H1442   1.083       .  S
C1431      C1432   1.346       .  D
C1431      H1443   1.086       .  S
C1432      C1433   1.484       .  S
C1432      H1444   1.084       .  S
C1433      C1434   1.400       .  A
C1433      C1438   1.410       .  A
C1434      C1435   1.394       .  A
C1434      H1445   1.083       .  S
C1435      C1436   1.406       .  A
C1435      H1446   1.083       .  S
C1436      C1437   1.404       .  A
C1437      C1438   1.402       .  A
C1437      H1447   1.083       .  S
C1438      H1448   1.082       .  S
C1449      C1450   1.407       .  A
C1449      C1454   1.406       .  A
C1450      C1451   1.398       .  A
C1450      H1463   1.083       .  S
C1451      C1452   1.404       .  A
C1451      H1464   1.084       .  S
C1452      C1453   1.411       .  A
C1452      C1455   1.494       .  S
C1453      C1454   1.403       .  A
C1453      H1465   1.080       .  S
C1454      H1466   1.083       .  S
C1455      C1456   1.349       .  D
C1455      H1467   1.085       .  S
C1456      C1457   1.492       .  S
C1456      H1468   1.084       .  S
C1457      C1458   1.403       .  A
C1457      C1462   1.410       .  A
C1458      C1459   1.398       .  A
C1458      H1469   1.084       .  S
C1459      C1460   1.408       .  A
C1459      H1470   1.083       .  S
C1460      C1461   1.406       .  A
C1461      C1462   1.403       .  A
C1461      H1471   1.083       .  S
C1462      H1472   1.081       .  S
C1473      C1474   1.406       .  A
C1473      C1478   1.407       .  A
C1474      C1475   1.400       .  A
C1474      H1487   1.083       .  S
C1475      C1476   1.405       .  A
C1475      H1488   1.083       .  S
C1476      C1477   1.407       .  A
C1476      C1479   1.490       .  S
C1477      C1478   1.398       .  A
C1477      H1489   1.081       .  S
C1478      H1490   1.083       .  S
C1479      C1480   1.350       .  D
C1479      H1491   1.083       .  S
C1480      C1481   1.492       .  S
C1480      H1492   1.085       .  S
C1481      C1482   1.405       .  A
C1481      C1486   1.409       .  A
C1482      C1483   1.399       .  A
C1482      H1493   1.083       .  S
C1483      C1484   1.405       .  A
C1483      H1494   1.083       .  S
C1484      C1485   1.407       .  A
C1485      C1486   1.400       .  A
C1485      H1495   1.083       .  S
C1486      H1496   1.080       .  S
C1497      C1498   1.407       .  A
C1497      C1502   1.406       .  A
C1498      C1499   1.398       .  A
C1498      H1511   1.083       .  S
C1499      C1500   1.403       .  A
C1499      H1512   1.083       .  S
C1500      C1501   1.410       .  A
C1500      C1503   1.491       .  S
C1501      C1502   1.402       .  A
C1501      H1513   1.081       .  S
C1502      H1514   1.083       .  S
C1503      C1504   1.348       .  D
C1503      H1515   1.085       .  S
C1504      C1505   1.488       .  S
C1504      H1516   1.085       .  S
C1505      C1506   1.401       .  A
C1505      C1510   1.410       .  A
C1506      C1507   1.395       .  A
C1506      H1517   1.083       .  S
C1507      C1508   1.406       .  A
C1507      H1518   1.083       .  S
C1508      C1509   1.405       .  A
C1509      C1510   1.404       .  A
C1509      H1519   1.083       .  S
C1510      H1520   1.082       .  S
