geometry optimzed in LAMMPS
_audit_creation_date              2020-11-30 
_audit_creation_method            'lammps2cif' 
_symmetry_space_group_name_H-M    'P1' 
_symmetry_Int_Tables_number       1 
_symmetry_cell_setting            triclinic 
loop_ 
_symmetry_equiv_pos_as_xyz 
  x,y,z 
_cell_length_a                    34.33705735 
_cell_length_b                    34.32718081697901 
_cell_length_c                    33.93540985159024 
_cell_angle_alpha                 90.07775606073714 
_cell_angle_beta                  90.12151609160802 
_cell_angle_gamma                 120.06110629985892 
loop_ 
_atom_site_label 
_atom_site_type_symbol 
_atom_site_fract_x 
_atom_site_fract_y 
_atom_site_fract_z 
_atom_site_charge 
Fe1        Fe  0.32591480  0.99735552  0.08496376     1.65800
Fe2        Fe  0.21657230  0.93943559  0.10572533     1.73200
Fe3        Fe  0.26850669  0.88768815  0.06479545     1.54400
O4          O  0.30933148  0.92491537  0.01787258    -0.83100
O5          O  0.20180251  0.88509662  0.14191560    -0.81500
O6          O  0.32378969  0.99603307  0.02392831    -0.85700
O7          O  0.36658504  0.96941889  0.08286287    -0.80500
O8          O  0.21327019  0.87194439  0.02906436    -0.82300
O9          O  0.25436541  0.98141502  0.15208462    -0.85000
C10         C  0.36124017  0.93452042  0.09994406     0.95700
C11         C  0.32042281  0.96341092  0.00312068     1.03200
O12         O  0.26951285  0.94060735  0.08521194    -1.14000
O13         O  0.22689369  0.99272242  0.06947920    -0.76400
O14         O  0.29712468  0.03714023  0.08726640    -0.79900
O15         O  0.32295010  0.89904706  0.10043044    -0.80600
C16         C  0.26212688  0.03112415  0.06986372     0.94600
O17         O  0.32550960  0.99625167  0.14592143    -0.78600
O18         O  0.17422730  0.89716493  0.06225643    -0.83800
C19         C  0.20581257  0.85038018  0.13746356     0.97300
C20         C  0.17843971  0.87573069  0.03359934     1.03200
O21         O  0.22721982  0.84605185  0.10887290    -0.79400
C22         C  0.29295138  0.99265050  0.16683417     1.01500
Fe23       Fe  0.33784792  0.99831363  0.75149761     1.65800
Fe24       Fe  0.39604268  0.94736969  0.77241168     1.73200
Fe25       Fe  0.44713588  0.05128645  0.73182257     1.54400
O26         O  0.40920057  0.05348922  0.68469698    -0.83100
O27         O  0.45161114  0.98703573  0.80758588    -0.81500
O28         O  0.33872744  0.99553737  0.69041108    -0.85700
O29         O  0.36548748  0.06673976  0.74720830    -0.80500
O30         O  0.46351784  0.01206955  0.69628600    -0.82300
O31         O  0.35597804  0.94503246  0.81957380    -0.85000
C32         C  0.39887875  0.09589913  0.76627866     0.95700
C33         C  0.37145956  0.02441598  0.66947919     1.03200
O34         O  0.39465338  0.99897283  0.75196260    -1.14000
O35         O  0.34153736  0.90373269  0.73710508    -0.76400
O36         O  0.29806064  0.92985254  0.75589930    -0.79900
O37         O  0.43476346  0.09386989  0.76762655    -0.80600
C38         C  0.30325588  0.90068997  0.73802421     0.94600
O39         O  0.34063173  0.00103427  0.81252328    -0.78600
O40         O  0.43665484  0.94658171  0.72798616    -0.83800
C41         C  0.48579738  0.02624169  0.80371071     0.97300
C42         C  0.45870155  0.97286578  0.69992430     1.03200
O43         O  0.48932050  0.05258184  0.77593154    -0.79400
C44         C  0.34542345  0.97305632  0.83398892     1.01500
Fe45       Fe  0.00456633  0.33565045  0.08550850     1.65800
Fe46       Fe  0.06174074  0.28343787  0.10570468     1.73200
Fe47       Fe  0.11400937  0.38748396  0.06533722     1.54400
O48         O  0.07651024  0.39129121  0.01838752    -0.83100
O49         O  0.11663968  0.32260504  0.14170951    -0.81500
O50         O  0.00536657  0.33464156  0.02452689    -0.85700
O51         O  0.03302539  0.40430918  0.08314854    -0.80500
O52         O  0.12940370  0.34801774  0.02935146    -0.82300
O53         O  0.02055288  0.27963282  0.15241325    -0.85000
C54         C  0.06775949  0.43345815  0.10083622     0.95700
C55         C  0.03792732  0.36364908  0.00362807     1.03200
O56         O  0.06099670  0.33553030  0.08550494    -1.14000
O57         O  0.00776283  0.24065164  0.06964729    -0.76400
O58         O  0.96405662  0.26699557  0.08773664    -0.79900
O59         O  0.10309359  0.43048687  0.10143707    -0.80600
C60         C  0.96949283  0.23771139  0.07023283     0.94600
O61         O  0.00657049  0.33659286  0.14654729    -0.78600
O62         O  0.10331120  0.28320715  0.06190311    -0.83800
C63         C  0.15150647  0.36130696  0.13759259     0.97300
C64         C  0.12514564  0.30914570  0.03359476     1.03200
O65         O  0.15585060  0.38748236  0.10935039    -0.79400
C66         C  0.00981030  0.30726010  0.16728304     1.01500
Fe67       Fe  0.33233976  0.32825563  0.91963381     1.65800
Fe68       Fe  0.38312545  0.26961580  0.93806096     1.73200
Fe69       Fe  0.27873526  0.21901489  0.89798953     1.54400
O70         O  0.23649992  0.23098100  0.93426368    -0.83100
O71         O  0.38222964  0.22782468  0.89381301    -0.81500
O72         O  0.26389912  0.30123884  0.91649270    -0.85700
O73         O  0.33388441  0.32815218  0.85857875    -0.80500
O74         O  0.27787209  0.17686090  0.94146527    -0.82300
O75         O  0.42573006  0.32362567  0.90170111    -0.85000
C76         C  0.30492755  0.29567796  0.83730026     0.95700
C77         C  0.23433071  0.26678801  0.93398276     1.03200
O78         O  0.33124621  0.27124210  0.91861361    -1.14000
O79         O  0.38771475  0.31053869  0.98562669    -0.76400
O80         O  0.33098869  0.32495238  0.98059049    -0.79900
O81         O  0.27621292  0.25755760  0.85187083    -0.80600
C82         C  0.35991479  0.32067205  0.00114251     0.94600
O83         O  0.40092482  0.36714338  0.92325627    -0.78600
O84         O  0.34342985  0.21467940  0.97362234    -0.83800
C85         C  0.35570946  0.20568587  0.86576939     0.97300
C86         C  0.30404691  0.18064944  0.96955304     1.03200
O87         O  0.31703700  0.20204870  0.86172898    -0.79400
C88         C  0.42859921  0.36188313  0.90308149     1.01500
Fe89       Fe  0.99356141  0.32769069  0.41877503     1.65800
Fe90       Fe  0.88381909  0.27171093  0.43716933     1.73200
Fe91       Fe  0.93513463  0.21832042  0.39791996     1.54400
O92         O  0.97702588  0.25550425  0.35150539    -0.83100
O93         O  0.86649436  0.21627760  0.47285465    -0.81500
O94         O  0.99217303  0.32680522  0.35775610    -0.85700
O95         O  0.03309380  0.29852053  0.41690882    -0.80500
O96         O  0.88079911  0.20322855  0.36126626    -0.82300
O97         O  0.92069432  0.31218645  0.48470767    -0.85000
C98         C  0.02691672  0.26368255  0.43460572     0.95700
C99         C  0.98742390  0.29378969  0.33665107     1.03200
O100        O  0.93658710  0.27164456  0.41798453    -1.14000
O101        O  0.89664066  0.32626652  0.40114270    -0.76400
O102        O  0.96635249  0.36895113  0.42073833    -0.79900
O103        O  0.98838142  0.22859738  0.43474675    -0.80600
C104        C  0.93246572  0.36423619  0.40220654     0.94600
O105        O  0.99141678  0.32534109  0.47980197    -0.78600
O106        O  0.84266833  0.23079693  0.39262895    -0.83800
C107        C  0.87054431  0.18148169  0.46915294     0.97300
C108        C  0.84664743  0.20834679  0.36473449     1.03200
O109        O  0.89278417  0.17701402  0.44140605    -0.79400
C110        C  0.95851282  0.32176970  0.50025235     1.01500
Fe111      Fe  0.33873522  0.33909543  0.25216746     1.65800
Fe112      Fe  0.44821856  0.39777504  0.23319519     1.73200
Fe113      Fe  0.39476207  0.44830860  0.27371051     1.54400
O114        O  0.34073174  0.43670337  0.23731304    -0.83100
O115        O  0.48908692  0.43897516  0.27783536    -0.81500
O116        O  0.29762056  0.36645639  0.25506604    -0.85700
O117        O  0.34056519  0.33922803  0.31317920    -0.80500
O118        O  0.43638765  0.49098009  0.23046208    -0.82300
O119        O  0.43709155  0.34344951  0.26907288    -0.85000
C120        C  0.34381732  0.37153871  0.33440392     0.95700
C121        C  0.30267639  0.40095309  0.23748512     1.03200
O122        O  0.39481337  0.39605372  0.25293655    -1.14000
O123        O  0.41150822  0.35708295  0.18550108    -0.76400
O124        O  0.34014371  0.34200039  0.19127632    -0.79900
O125        O  0.35355693  0.40976638  0.31984370    -0.80600
C126        C  0.37297266  0.34592620  0.17053445     0.94600
O127        O  0.36799190  0.29979472  0.24880679    -0.78600
O128        O  0.46371310  0.45323715  0.19794892    -0.83800
C129        C  0.48444579  0.46049928  0.30619547     0.97300
C130        C  0.45874988  0.48745251  0.20229721     1.03200
O131        O  0.44962149  0.46442270  0.31007975    -0.79400
C132        C  0.40165085  0.30515525  0.26807552     1.01500
Fe133      Fe  0.99900399  0.33951475  0.75190575     1.65800
Fe134      Fe  0.94653683  0.39650854  0.73216014     1.73200
Fe135      Fe  0.05155264  0.44916965  0.77159168     1.54400
O136        O  0.05512638  0.41234851  0.81882880    -0.83100
O137        O  0.98545054  0.45172050  0.69639683    -0.81500
O138        O  0.99839638  0.34116801  0.81304503    -0.85700
O139        O  0.06762793  0.36750260  0.75430624    -0.80500
O140        O  0.01301246  0.46597898  0.80707287    -0.82300
O141        O  0.94261329  0.35558152  0.68491914    -0.85000
C142        C  0.09705528  0.40211798  0.73689176     0.95700
C143        C  0.02699701  0.37434186  0.83395576     1.03200
O144        O  0.99905825  0.39600927  0.75182671    -1.14000
O145        O  0.90386177  0.34214777  0.76813691    -0.76400
O146        O  0.93044133  0.29896758  0.74933858    -0.79900
O147        O  0.09420946  0.43748693  0.73600521    -0.80600
C148        C  0.90122834  0.30396934  0.76728658     0.94600
O149        O  0.99936023  0.34120206  0.69080373    -0.78600
O150        O  0.94669533  0.43792687  0.77641263    -0.83800
C151        C  0.02487755  0.48591186  0.69962269     0.97300
C152        C  0.97380019  0.46107263  0.80378473     1.03200
O153        O  0.05171880  0.49008168  0.72722400    -0.79400
C154        C  0.97020707  0.34483465  0.66997889     1.01500
Fe155      Fe  0.33202455  0.00619410  0.41761033     1.65800
Fe156      Fe  0.27965534  0.06370676  0.39990036     1.73200
Fe157      Fe  0.38378845  0.11496984  0.44057039     1.54400
O158        O  0.38693681  0.07593337  0.48634387    -0.83100
O159        O  0.31886735  0.12015889  0.36565194    -0.81500
O160        O  0.33028639  0.00487571  0.47861061    -0.85700
O161        O  0.40058975  0.03460705  0.42108082    -0.80500
O162        O  0.34437327  0.12978555  0.47725609    -0.82300
O163        O  0.27688030  0.02476934  0.35159120    -0.85000
C164        C  0.42946658  0.06923746  0.40336349     0.95700
C165        C  0.35934194  0.03691199  0.50018834     1.03200
O166        O  0.33175650  0.06254158  0.41949808    -1.14000
O167        O  0.23685123  0.00814911  0.43435992    -0.76400
O168        O  0.26344201  0.96561619  0.41375967    -0.79900
O169        O  0.42667638  0.10468502  0.40362927    -0.80600
C170        C  0.23436075  0.97008895  0.43253924     0.94600
O171        O  0.33402285  0.01094893  0.35677771    -0.78600
O172        O  0.27886492  0.10317408  0.44541745    -0.83800
C173        C  0.35800244  0.15451514  0.36983534     0.97300
C174        C  0.30510614  0.12482312  0.47377036     1.03200
O175        O  0.38434489  0.15802900  0.39771823    -0.79400
C176        C  0.30520335  0.01531822  0.33620500     1.01500
Fe177      Fe  0.32572011  0.33252507  0.58563204     1.65800
Fe178      Fe  0.26794255  0.38392253  0.56500830     1.73200
Fe179      Fe  0.21673262  0.28072514  0.60706422     1.54400
O180        O  0.22758986  0.23680024  0.57201853    -0.83100
O181        O  0.22797986  0.38566984  0.60949683    -0.81500
O182        O  0.29768792  0.26415815  0.59041871    -0.85700
O183        O  0.32619617  0.33583165  0.64664948    -0.80500
O184        O  0.17396854  0.27891082  0.56327251    -0.82300
O185        O  0.32323838  0.42805797  0.59941869    -0.85000
C186        C  0.29393222  0.30706047  0.66799560     0.95700
C187        C  0.26316735  0.23424620  0.57309049     1.03200
O188        O  0.26918628  0.33238554  0.58587306    -1.14000
O189        O  0.30744362  0.38570256  0.51780551    -0.76400
O190        O  0.32230136  0.32936717  0.52462500    -0.79900
O191        O  0.25531239  0.27891375  0.65367158    -0.80600
C192        C  0.31841205  0.35802844  0.50339801     0.94600
O193        O  0.36589382  0.40085935  0.58075789    -0.78600
O194        O  0.21187480  0.34365833  0.53045935    -0.83800
C195        C  0.20633168  0.36003292  0.63801346     0.97300
C196        C  0.17754192  0.30462975  0.53493031     1.03200
O197        O  0.20152630  0.32093390  0.64227765    -0.79400
C198        C  0.36139309  0.43076176  0.59807044     1.01500
Fe199      Fe  0.00618653  0.67223114  0.58451458     1.65800
Fe200      Fe  0.11552732  0.72919727  0.56449975     1.73200
Fe201      Fe  0.06373553  0.78140688  0.60516781     1.54400
O202        O  0.00937090  0.77019713  0.56948987    -0.83100
O203        O  0.15729353  0.77018129  0.60875501    -0.81500
O204        O  0.96591714  0.70044389  0.58819103    -0.85700
O205        O  0.00862722  0.67266052  0.64564902    -0.80500
O206        O  0.10476266  0.82293552  0.56097128    -0.82300
O207        O  0.10390857  0.67471298  0.60014941    -0.85000
C208        C  0.01197423  0.70518460  0.66670360     0.95700
C209        C  0.97108024  0.73482109  0.57037042     1.03200
O210        O  0.06278133  0.72857013  0.58478783    -1.14000
O211        O  0.07777090  0.68871627  0.51736216    -0.76400
O212        O  0.00706540  0.67531667  0.52358067    -0.79900
O213        O  0.02309667  0.74383450  0.65218798    -0.80600
C214        C  0.03980968  0.67962798  0.50244949     0.94600
O215        O  0.03439049  0.63212158  0.58039960    -0.78600
O216        O  0.13160412  0.78448451  0.52897969    -0.83800
C217        C  0.15317552  0.79222084  0.63694685     0.97300
C218        C  0.12681307  0.81882008  0.53282248     1.03200
O219        O  0.11891676  0.79709389  0.64072689    -0.79400
C220        C  0.06814122  0.63672030  0.59898928     1.01500
Fe221      Fe  0.66578527  0.99497159  0.58572254     1.65800
Fe222      Fe  0.71839663  0.93794704  0.60430691     1.73200
Fe223      Fe  0.61429525  0.88598626  0.56356911     1.54400
O224        O  0.57088628  0.89641236  0.59967809    -0.83100
O225        O  0.71903474  0.89759080  0.55977418    -0.81500
O226        O  0.59722691  0.96661514  0.58225282    -0.85700
O227        O  0.66753150  0.99552514  0.52458537    -0.80500
O228        O  0.61403332  0.84369542  0.60699519    -0.82300
O229        O  0.76075280  0.99280317  0.56885374    -0.85000
C230        C  0.63899013  0.96297955  0.50308840     0.95700
C231        C  0.56789249  0.93176688  0.59943156     1.03200
O232        O  0.66609228  0.93865391  0.58453234    -1.14000
O233        O  0.72171659  0.97794480  0.65176700    -0.76400
O234        O  0.66410672  0.99100899  0.64669105    -0.79900
O235        O  0.61113372  0.92434465  0.51739771    -0.80600
C236        C  0.69324365  0.98707062  0.66723787     0.94600
O237        O  0.73425239  0.03529296  0.58957673    -0.78600
O238        O  0.67931049  0.88208759  0.63937472    -0.83800
C239        C  0.69308676  0.87584320  0.53135223     0.97300
C240        C  0.64027811  0.84754793  0.63510249     1.03200
O241        O  0.65393223  0.87098842  0.52734281    -0.79400
C242        C  0.76295785  0.03075653  0.57029661     1.01500
Fe243      Fe  0.99774048  0.66261139  0.25130950     1.65800
Fe244      Fe  0.05107474  0.60668647  0.27198347     1.73200
Fe245      Fe  0.94696335  0.55321509  0.23123286     1.54400
O246        O  0.90377113  0.56373277  0.26746732    -0.83100
O247        O  0.05167003  0.56508322  0.22834596    -0.81500
O248        O  0.92907083  0.63315720  0.24830637    -0.85700
O249        O  0.99892813  0.66149706  0.19038728    -0.80500
O250        O  0.94764602  0.51187988  0.27504351    -0.82300
O251        O  0.09341113  0.66086281  0.23594547    -0.85000
C252        C  0.97020569  0.62856382  0.16942448     0.95700
C253        C  0.90059576  0.59895712  0.26679617     1.03200
O254        O  0.99865764  0.60660981  0.25148398    -1.14000
O255        O  0.05435532  0.64794468  0.31855094    -0.76400
O256        O  0.99659452  0.66069937  0.31228191    -0.79900
O257        O  0.94257537  0.59019239  0.18431716    -0.80600
C258        C  0.02623605  0.65811228  0.33317927     0.94600
O259        O  0.06628381  0.70389395  0.25407185    -0.78600
O260        O  0.01233461  0.55160378  0.30790273    -0.83800
C261        C  0.02580579  0.54295266  0.19993668     0.97300
C262        C  0.97382176  0.51644215  0.30341652     1.03200
O263        O  0.98680118  0.53830786  0.19538449    -0.79400
C264        C  0.09577424  0.69892154  0.23651544     1.01500
Fe265      Fe  0.67226597  0.66836937  0.41997402     1.65800
Fe266      Fe  0.72916511  0.61585983  0.44008412     1.73200
Fe267      Fe  0.78138412  0.71959811  0.39897794     1.54400
O268        O  0.74339222  0.72195043  0.35181723    -0.83100
O269        O  0.78502508  0.65520888  0.47517159    -0.81500
O270        O  0.67195115  0.66599925  0.35897569    -0.85700
O271        O  0.70056499  0.73681627  0.41586772    -0.80500
O272        O  0.79695387  0.67967289  0.36394226    -0.82300
O273        O  0.68940753  0.61380292  0.48730853    -0.85000
C274        C  0.73540285  0.76653501  0.43293657     0.95700
C275        C  0.70434320  0.69464198  0.33764415     1.03200
O276        O  0.72855321  0.66794585  0.41961974    -1.14000
O277        O  0.67410372  0.57276357  0.40491580    -0.76400
O278        O  0.63155638  0.59990966  0.42405360    -0.79900
O279        O  0.77067569  0.76349838  0.43399315    -0.80600
C280        C  0.63606850  0.57035667  0.40607573     0.94600
O281        O  0.67577291  0.67097303  0.48094816    -0.78600
O282        O  0.76953906  0.61427859  0.39578777    -0.83800
C283        C  0.81941973  0.69430977  0.47127635     0.97300
C284        C  0.79195051  0.64046898  0.36781514     1.03200
O285        O  0.82325645  0.72060469  0.44332059    -0.79400
C286        C  0.67939846  0.64206782  0.50201263     1.01500
Fe287      Fe  0.65736118  0.66151711  0.75315873     1.65800
Fe288      Fe  0.60094210  0.55239901  0.73133284     1.73200
Fe289      Fe  0.54754129  0.60353259  0.77083959     1.54400
O290        O  0.58367893  0.64290468  0.81931238    -0.83100
O291        O  0.54674298  0.53695417  0.69445223    -0.81500
O292        O  0.65507642  0.65797037  0.81409468    -0.85700
O293        O  0.62896171  0.70162513  0.75636640    -0.80500
O294        O  0.53017679  0.54723880  0.80545396    -0.82300
O295        O  0.64290540  0.59091204  0.68557597    -0.85000
C296        C  0.59562412  0.69667407  0.73684898     0.95700
C297        C  0.62181119  0.65320869  0.83472057     1.03200
O298        O  0.60101736  0.60481441  0.75187291    -1.14000
O299        O  0.65451415  0.56342622  0.76809277    -0.76400
O300        O  0.69786288  0.63361851  0.75029205    -0.79900
O301        O  0.56004686  0.65855790  0.73548827    -0.80600
C302        C  0.69272334  0.59897445  0.76759126     0.94600
O303        O  0.65640913  0.66168076  0.69208487    -0.78600
O304        O  0.55847804  0.50966668  0.77417370    -0.83800
C305        C  0.51238750  0.54181551  0.69735391     0.97300
C306        C  0.53509191  0.51296390  0.80153350     1.03200
O307        O  0.50752656  0.56363884  0.72531058    -0.79400
C308        C  0.65337011  0.62933073  0.67099625     1.01500
Fe309      Fe  0.67265562  0.00424815  0.91816299     1.65800
Fe310      Fe  0.78207398  0.06241008  0.89811036     1.73200
Fe311      Fe  0.72934153  0.11365281  0.93859846     1.54400
O312        O  0.67540279  0.10211865  0.90236473    -0.83100
O313        O  0.82358226  0.10418137  0.94221313    -0.81500
O314        O  0.63192248  0.03209279  0.92064632    -0.85700
O315        O  0.67474286  0.00512916  0.97914136    -0.80500
O316        O  0.77085602  0.15575332  0.89493362    -0.82300
O317        O  0.77123021  0.00839308  0.93408927    -0.85000
C318        C  0.67766517  0.03754007  0.99997903     0.95700
C319        C  0.63722464  0.06659416  0.90288600     1.03200
O320        O  0.72893953  0.06101997  0.91825666    -1.14000
O321        O  0.74472324  0.02108974  0.85115442    -0.76400
O322        O  0.67347985  0.00618233  0.85735585    -0.79900
O323        O  0.68820201  0.07591381  0.98523490    -0.80600
C324        C  0.70608206  0.00987519  0.83646786     0.94600
O325        O  0.70141467  0.96446805  0.91525946    -0.78600
O326        O  0.79738497  0.11743458  0.86230000    -0.83800
C327        C  0.81900405  0.12576114  0.97056744     0.97300
C328        C  0.79281040  0.15187917  0.86659304     1.03200
O329        O  0.78415724  0.12956617  0.97465146    -0.79400
C330        C  0.73585859  0.97002617  0.93332422     1.01500
Fe331      Fe  0.65982156  0.00180175  0.25143269     1.65800
Fe332      Fe  0.60220160  0.05325530  0.23056035     1.73200
Fe333      Fe  0.55051322  0.94958321  0.27166242     1.54400
O334        O  0.56230458  0.90619719  0.23685006    -0.83100
O335        O  0.56109884  0.05433289  0.27446813    -0.81500
O336        O  0.63205195  0.93344911  0.25609111    -0.85700
O337        O  0.65962375  0.00476955  0.31250096    -0.80500
O338        O  0.50875561  0.94798629  0.22692715    -0.82300
O339        O  0.65683456  0.09669425  0.26608472    -0.85000
C340        C  0.62710266  0.97601459  0.33368549     0.95700
C341        C  0.59792649  0.90378685  0.23815594     1.03200
O342        O  0.60318860  0.00151768  0.25124798    -1.14000
O343        O  0.64252920  0.05557896  0.18364452    -0.76400
O344        O  0.65663711  0.99877068  0.19041711    -0.79900
O345        O  0.58849332  0.94800113  0.31912713    -0.80600
C346        C  0.65244020  0.02717501  0.16906085     0.94600
O347        O  0.69976310  0.07017368  0.24668319    -0.78600
O348        O  0.54680993  0.01347054  0.19515997    -0.83800
C349        C  0.53854026  0.02806233  0.30236260     0.97300
C350        C  0.51261447  0.97420496  0.19888883     1.03200
O351        O  0.53391939  0.98902457  0.30643963    -0.79400
C352        C  0.69501603  0.09943024  0.26486896     1.01500
Fe353      Fe  0.99303018  0.66925618  0.91834969     1.65800
Fe354      Fe  0.88348744  0.61534841  0.93749423     1.73200
Fe355      Fe  0.93444996  0.71981330  0.89770992     1.54400
O356        O  0.98883258  0.76347163  0.93356673    -0.83100
O357        O  0.84176952  0.61400726  0.89314269    -0.81500
O358        O  0.03265274  0.73780436  0.91471298    -0.85700
O359        O  0.99084958  0.66728412  0.85730890    -0.80500
O360        O  0.89314485  0.71974527  0.94203243    -0.82300
O361        O  0.89630708  0.57326255  0.90183502    -0.85000
C362        C  0.98589390  0.69518664  0.83590106     0.95700
C363        C  0.02723187  0.76667144  0.93286007     1.03200
O364        O  0.93600863  0.66815134  0.91783038    -1.14000
O365        O  0.92107971  0.61304386  0.98487274    -0.76400
O366        O  0.99169561  0.67100458  0.97939381    -0.79900
O367        O  0.97493722  0.72289562  0.85041872    -0.80600
C368        C  0.95911854  0.64146988  0.00004297     0.94600
O369        O  0.96573416  0.60093902  0.92201733    -0.78600
O370        O  0.86598692  0.65366658  0.97276466    -0.83800
C371        C  0.84514013  0.64053622  0.86563210     0.97300
C372        C  0.87034992  0.69268418  0.96942944     1.03200
O373        O  0.87903384  0.68005679  0.86216466    -0.79400
C374        C  0.93230778  0.57156145  0.90314883     1.01500
Fe375      Fe  0.66282224  0.67196963  0.08635848     1.65800
Fe376      Fe  0.61214306  0.73045660  0.06598984     1.73200
Fe377      Fe  0.71652702  0.78144127  0.10631122     1.54400
O378        O  0.71977685  0.74383802  0.15306546    -0.83100
O379        O  0.65202991  0.78530818  0.03010330    -0.81500
O380        O  0.66161737  0.67347716  0.14748624    -0.85700
O381        O  0.73132335  0.69960533  0.08928669    -0.80500
O382        O  0.67801220  0.79788231  0.14236047    -0.82300
O383        O  0.60773336  0.68900929  0.01898380    -0.85000
C384        C  0.76028462  0.73324233  0.07048804     0.95700
C385        C  0.69093258  0.70621150  0.16832460     1.03200
O386        O  0.66384820  0.72890804  0.08611946    -1.14000
O387        O  0.56888620  0.67665653  0.10217179    -0.76400
O388        O  0.59420369  0.63245831  0.08327858    -0.79900
O389        O  0.75844517  0.76921151  0.06993165    -0.80600
C390        C  0.56566850  0.63822635  0.10156659     0.94600
O391        O  0.66378266  0.67365025  0.02527369    -0.78600
O392        O  0.61285488  0.77225609  0.11014412    -0.83800
C393        C  0.69130151  0.81951303  0.03427369     0.97300
C394        C  0.63920012  0.79387393  0.13847001     1.03200
O395        O  0.71721623  0.82338441  0.06260816    -0.79400
C396        C  0.63486904  0.67749643  0.00429642     1.01500
C397        C  0.82387540  0.67888715  0.02999179    -0.14800
C398        C  0.84702693  0.70675654  0.99806496     0.07300
C399        C  0.84567021  0.74684921  0.99284639    -0.14800
C400        C  0.81967089  0.75740477  0.01780877    -0.14800
C401        C  0.79470394  0.72810944  0.04844961     0.07300
C402        C  0.79821803  0.68945331  0.05483871    -0.14800
H403        H  0.82447062  0.64806334  0.03522309     0.11300
H404        H  0.86332694  0.76923305  0.96860842     0.11300
H405        H  0.81742965  0.78724278  0.01198633     0.11300
H406        H  0.77963571  0.66617762  0.07829915     0.11300
C407        C  0.64013899  0.86360330  0.22520078    -0.14800
C408        C  0.60226791  0.86813251  0.21748990     0.07300
C409        C  0.57361586  0.84364170  0.18620263    -0.14800
C410        C  0.58452869  0.81781481  0.16140376    -0.14800
C411        C  0.62435118  0.81616032  0.16746058     0.07300
C412        C  0.65109109  0.83807598  0.20047054    -0.14800
H413        H  0.66272955  0.88166716  0.24934628     0.11300
H414        H  0.54430517  0.84654993  0.17948522     0.11300
H415        H  0.56285487  0.80085750  0.13647267     0.11300
H416        H  0.68151234  0.83691779  0.20646580     0.11300
C417        C  0.69673676  0.88743857  0.94472525    -0.14800
C418        C  0.73200013  0.93073608  0.95472083     0.07300
C419        C  0.75713109  0.93613253  0.98897961    -0.14800
C420        C  0.74503218  0.89948699  0.01417050    -0.14800
C421        C  0.70749317  0.85692540  0.00553480     0.07300
C422        C  0.68451538  0.85105960  0.96988446    -0.14800
H423        H  0.67694112  0.88211126  0.91830893     0.11300
H424        H  0.78417498  0.96913688  0.99758937     0.11300
H425        H  0.76369978  0.90503010  0.04131500     0.11300
H426        H  0.65607225  0.81860723  0.96196038     0.11300
C427        C  0.67264862  0.99920099  0.06484431    -0.14800
C428        C  0.66868166  0.03178948  0.04284376     0.07300
C429        C  0.65916625  0.06193521  0.06265114    -0.14800
C430        C  0.65435867  0.06024876  0.10335133    -0.14800
C431        C  0.65901573  0.02838754  0.12575901     0.07300
C432        C  0.66791073  0.99755711  0.10606258    -0.14800
H433        H  0.68038949  0.97579349  0.05034703     0.11300
H434        H  0.65567829  0.08732976  0.04664954     0.11300
H435        H  0.64701217  0.08425362  0.11720870     0.11300
H436        H  0.67127070  0.97232101  0.12244393     0.11300
C437        C  0.72796215  0.57571986  0.82075008    -0.14800
C438        C  0.73246978  0.60265271  0.78810969     0.07300
C439        C  0.77538377  0.63881545  0.77875410    -0.14800
C440        C  0.81228133  0.64998979  0.80306348    -0.14800
C441        C  0.80734799  0.62507547  0.83722879     0.07300
C442        C  0.76515761  0.58679956  0.84510323    -0.14800
H443        H  0.69529372  0.54789784  0.82880571     0.11300
H444        H  0.78007509  0.66001835  0.75353970     0.11300
H445        H  0.84436837  0.67914855  0.79576451     0.11300
H446        H  0.76031733  0.56670458  0.87114058     0.11300
C447        C  0.59058658  0.65734173  0.89991686    -0.14800
C448        C  0.62642579  0.65957797  0.87814638     0.07300
C449        C  0.66490693  0.66581351  0.89856350    -0.14800
C450        C  0.66748636  0.67025229  0.93982477    -0.14800
C451        C  0.63171205  0.66872159  0.96126740     0.07300
C452        C  0.59323346  0.66193157  0.94073794    -0.14800
H453        H  0.56021480  0.65216437  0.88542798     0.11300
H454        H  0.69290798  0.66719847  0.88271163     0.11300
H455        H  0.69774833  0.67583724  0.95481344     0.11300
H456        H  0.56497484  0.66043323  0.95624142     0.11300
C457        C  0.66683595  0.60240056  0.56591236    -0.14800
C458        C  0.67175440  0.63990749  0.54510139     0.07300
C459        C  0.67179209  0.67526073  0.56621853    -0.14800
C460        C  0.66688780  0.67282374  0.60742810    -0.14800
C461        C  0.66179940  0.63495246  0.62797932     0.07300
C462        C  0.66196182  0.59997126  0.60657275    -0.14800
H463        H  0.66669542  0.57454413  0.55076975     0.11300
H464        H  0.67605540  0.70485816  0.55098860     0.11300
H465        H  0.66657656  0.70017595  0.62306584     0.11300
H466        H  0.65800436  0.57016230  0.62118083     0.11300
C467        C  0.66271584  0.66169792  0.27362212    -0.14800
C468        C  0.69784591  0.69735762  0.29474956     0.07300
C469        C  0.72958864  0.73541837  0.27400264    -0.14800
C470        C  0.72710384  0.73763267  0.23326226    -0.14800
C471        C  0.69280889  0.70180894  0.21172395     0.07300
C472        C  0.66024585  0.66388102  0.23236399    -0.14800
H473        H  0.63786015  0.63182223  0.28882862     0.11300
H474        H  0.75691459  0.76366621  0.28924980     0.11300
H475        H  0.75250273  0.76769396  0.21865762     0.11300
H476        H  0.63302618  0.63600310  0.21669127     0.11300
C477        C  0.84375935  0.57591949  0.32143888    -0.14800
C478        C  0.86527200  0.60277488  0.28849375     0.07300
C479        C  0.85832911  0.63893500  0.27977569    -0.14800
C480        C  0.83321708  0.65004110  0.30477496    -0.14800
C481        C  0.81400559  0.62511423  0.33909411     0.07300
C482        C  0.81823103  0.58695251  0.34652588    -0.14800
H483        H  0.84877837  0.54809633  0.32905840     0.11300
H484        H  0.87414384  0.66014364  0.25443127     0.11300
H485        H  0.83008333  0.67914609  0.29778375     0.11300
H486        H  0.80358003  0.56685294  0.37265631     0.11300
C487        C  0.93320144  0.59866798  0.10449876    -0.14800
C488        C  0.96797607  0.63374201  0.12622968     0.07300
C489        C  0.00109810  0.67160979  0.10591512    -0.14800
C490        C  0.99925050  0.67412583  0.06466854    -0.14800
C491        C  0.96417169  0.63885579  0.04319812     0.07300
C492        C  0.93132870  0.60119918  0.06373135    -0.14800
H493        H  0.90719576  0.56887739  0.11895208     0.11300
H494        H  0.02857238  0.69902520  0.12181240     0.11300
H495        H  0.02479106  0.70377249  0.04970197     0.11300
H496        H  0.90376745  0.57336053  0.04828665     0.11300
C497        C  0.69672213  0.81063927  0.44295797    -0.14800
C498        C  0.73218478  0.80303731  0.45303959     0.07300
C499        C  0.75832563  0.82443199  0.48644756    -0.14800
C500        C  0.74687386  0.84996802  0.51101240    -0.14800
C501        C  0.70899710  0.85437948  0.50258279     0.07300
C502        C  0.68516405  0.83586270  0.46750743    -0.14800
H503        H  0.67621407  0.79493397  0.41711660     0.11300
H504        H  0.78561404  0.81892461  0.49505252     0.11300
H505        H  0.76624231  0.86420570  0.53767068     0.11300
H506        H  0.65643171  0.83937396  0.45973692     0.11300
C507        C  0.58686497  0.76744014  0.65552053    -0.14800
C508        C  0.62486390  0.80986377  0.66358225     0.07300
C509        C  0.64898227  0.81546399  0.69853906    -0.14800
C510        C  0.63704605  0.77913222  0.72372327    -0.14800
C511        C  0.60079728  0.73608799  0.71457464     0.07300
C512        C  0.57498239  0.73085285  0.68077961    -0.14800
H513        H  0.56739165  0.76202352  0.62888817     0.11300
H514        H  0.67793341  0.84773999  0.70600478     0.11300
H515        H  0.65752240  0.78439212  0.74966608     0.11300
H516        H  0.54719828  0.69804256  0.67274561     0.11300
C517        C  0.60262616  0.93318787  0.43803997    -0.14800
C518        C  0.63697744  0.96857601  0.45987437     0.07300
C519        C  0.66965480  0.00678313  0.43958198    -0.14800
C520        C  0.66762676  0.00930040  0.39827321    -0.14800
C521        C  0.63282766  0.97367211  0.37679881     0.07300
C522        C  0.60062525  0.93568857  0.39732834    -0.14800
H523        H  0.57697296  0.90306799  0.45235459     0.11300
H524        H  0.69683296  0.03444209  0.45552857     0.11300
H525        H  0.69270636  0.03919973  0.38328001     0.11300
H526        H  0.57338471  0.90751896  0.38190535     0.11300
C527        C  0.66206425  0.99689270  0.73150579    -0.14800
C528        C  0.69533753  0.99311472  0.71056527     0.07300
C529        C  0.73044301  0.99280122  0.73169115    -0.14800
C530        C  0.73283128  0.99691072  0.77246772    -0.14800
C531        C  0.70017061  0.00140635  0.79353006     0.07300
C532        C  0.66443237  0.00094287  0.77274025    -0.14800
H533        H  0.63428792  0.99662759  0.71609699     0.11300
H534        H  0.75649689  0.98952331  0.71673544     0.11300
H535        H  0.76072893  0.99695930  0.78746999     0.11300
H536        H  0.63890655  0.00463089  0.78822193     0.11300
C537        C  0.88841589  0.69521785  0.55861517    -0.14800
C538        C  0.93150679  0.73116881  0.54948006     0.07300
C539        C  0.93645046  0.75815595  0.51673599    -0.14800
C540        C  0.89952442  0.74740310  0.49211733    -0.14800
C541        C  0.85710349  0.70941604  0.49982843     0.07300
C542        C  0.85174392  0.68442064  0.53407975    -0.14800
H543        H  0.88339274  0.67396184  0.58386048     0.11300
H544        H  0.96927629  0.78583216  0.50882914     0.11300
H545        H  0.90472286  0.76755894  0.46605854     0.11300
H546        H  0.81946858  0.65546105  0.54128880     0.11300
C547        C  0.99433332  0.66275985  0.43956185    -0.14800
C548        C  0.03499795  0.67440942  0.45903547     0.07300
C549        C  0.07275363  0.68318543  0.43637311    -0.14800
C550        C  0.06988052  0.67941034  0.39556833    -0.14800
C551        C  0.02922962  0.66687558  0.37602728     0.07300
C552        C  0.99148695  0.65905753  0.39828366    -0.14800
H553        H  0.96478475  0.65621527  0.45616472     0.11300
H554        H  0.10488379  0.69298459  0.45012167     0.11300
H555        H  0.09961669  0.68590472  0.37926290     0.11300
H556        H  0.95957842  0.64885820  0.38390778     0.11300
C557        C  0.99108989  0.72820676  0.72895505    -0.14800
C558        C  0.00267037  0.69930769  0.70956966     0.07300
C559        C  0.00845812  0.66812597  0.73201929    -0.14800
C560        C  0.00355907  0.66669554  0.77324562    -0.14800
C561        C  0.99262530  0.69632856  0.79254777     0.07300
C562        C  0.98605810  0.72668721  0.76967889    -0.14800
H563        H  0.98614268  0.75244731  0.71258421     0.11300
H564        H  0.01783954  0.64571724  0.71785383     0.11300
H565        H  0.00842987  0.64261627  0.78993449     0.11300
H566        H  0.97702715  0.74966360  0.78321336     0.11300
C567        C  0.44378363  0.47078406  0.61113852    -0.14800
C568        C  0.40161376  0.46709928  0.61800535     0.07300
C569        C  0.39788163  0.49316471  0.64799272    -0.14800
C570        C  0.43470262  0.51947744  0.67267035    -0.14800
C571        C  0.47574915  0.51996636  0.66779025     0.07300
C572        C  0.48030016  0.49672307  0.63578587    -0.14800
H573        H  0.44803067  0.45158386  0.58791856     0.11300
H574        H  0.36588572  0.49105525  0.65394068     0.11300
H575        H  0.43027063  0.53755678  0.69676677     0.11300
H576        H  0.51156797  0.49696209  0.63069502     0.11300
C577        C  0.50959660  0.07984680  0.32209224    -0.14800
C578        C  0.51600399  0.04324508  0.33077198     0.07300
C579        C  0.49878349  0.01987708  0.36615970    -0.14800
C580        C  0.47365671  0.03103844  0.39116968    -0.14800
C581        C  0.46481212  0.06571904  0.38141485     0.07300
C582        C  0.48413620  0.09094759  0.34719805    -0.14800
H583        H  0.52252477  0.09861400  0.29504830     0.11300
H584        H  0.50362285  0.99200812  0.37406367     0.11300
H585        H  0.45938488  0.01106723  0.41744645     0.11300
H586        H  0.47739106  0.11742131  0.33867681     0.11300
C587        C  0.17666996  0.93470125  0.48611647    -0.14800
C588        C  0.19930120  0.93015897  0.45363650     0.07300
C589        C  0.19361962  0.88745900  0.44503794    -0.14800
C590        C  0.16870081  0.85095044  0.46990056    -0.14800
C591        C  0.14860296  0.85610206  0.50394432     0.07300
C592        C  0.15148772  0.89797383  0.51103645    -0.14800
H593        H  0.18058575  0.96716761  0.49358856     0.11300
H594        H  0.21029156  0.88268861  0.41998617     0.11300
H595        H  0.16649671  0.81905480  0.46311769     0.11300
H596        H  0.13602409  0.90298530  0.53684710     0.11300
C597        C  0.24973760  0.14780119  0.49686928    -0.14800
C598        C  0.28961501  0.14625595  0.50308769     0.07300
C599        C  0.31601095  0.16794497  0.53630600    -0.14800
C600        C  0.30483281  0.19337000  0.56095412    -0.14800
C601        C  0.26713194  0.19810496  0.55290213     0.07300
C602        C  0.23863938  0.17359467  0.52154942    -0.14800
H603        H  0.22829951  0.13099569  0.47177610     0.11300
H604        H  0.34643629  0.16684181  0.54243811     0.11300
H605        H  0.32725699  0.21138054  0.58520881     0.11300
H606        H  0.20944561  0.17661912  0.51458825     0.11300
C607        C  0.85903240  0.22125634  0.77888737    -0.14800
C608        C  0.86567170  0.26417623  0.78824315     0.07300
C609        C  0.84380039  0.26874173  0.82129297    -0.14800
C610        C  0.81846366  0.23173891  0.84597990    -0.14800
C611        C  0.81471606  0.18959315  0.83807297     0.07300
C612        C  0.83406201  0.18454043  0.80351926    -0.14800
H613        H  0.87506867  0.21645006  0.75339240     0.11300
H614        H  0.84850000  0.30138410  0.82938470     0.11300
H615        H  0.80361494  0.23670271  0.87221999     0.11300
H616        H  0.83121040  0.15248426  0.79610842     0.11300
C617        C  0.15456593  0.42503007  0.68313856    -0.14800
C618        C  0.13323012  0.39873885  0.71638050     0.07300
C619        C  0.14098697  0.36336199  0.72619774    -0.14800
C620        C  0.16636347  0.35206760  0.70165232    -0.14800
C621        C  0.18485034  0.37601547  0.66673750     0.07300
C622        C  0.18023462  0.41378904  0.65851846    -0.14800
H623        H  0.14901293  0.45231382  0.67476506     0.11300
H624        H  0.12539254  0.34275991  0.75191747     0.11300
H625        H  0.17001616  0.32342985  0.70930282     0.11300
H626        H  0.19446235  0.43325787  0.63199390     0.11300
C627        C  0.08034490  0.56422960  0.67644884    -0.14800
C628        C  0.04000144  0.52301229  0.67067928     0.07300
C629        C  0.01309681  0.51836018  0.63793068    -0.14800
C630        C  0.02458568  0.55468757  0.61298932    -0.14800
C631        C  0.06310313  0.59685242  0.62026746     0.07300
C632        C  0.09175241  0.60091004  0.65147236    -0.14800
H633        H  0.10210888  0.56879219  0.70125085     0.11300
H634        H  0.98225065  0.48700905  0.63221337     0.11300
H635        H  0.00192470  0.55021069  0.58894454     0.11300
H636        H  0.12152275  0.63295705  0.65788017     0.11300
C637        C  0.98790451  0.50877341  0.86372520    -0.14800
C638        C  0.95952965  0.48425788  0.83232958     0.07300
C639        C  0.91872179  0.48427588  0.82735198    -0.14800
C640        C  0.90797449  0.51045655  0.85188983    -0.14800
C641        C  0.93778292  0.53691580  0.88184978     0.07300
C642        C  0.97713825  0.53460624  0.88817659    -0.14800
H643        H  0.01929717  0.50920549  0.86875033     0.11300
H644        H  0.89591993  0.46548018  0.80356164     0.11300
H645        H  0.87753859  0.51167435  0.84620164     0.11300
H646        H  0.00080886  0.55432692  0.91116047     0.11300
C647        C  0.42360206  0.27094426  0.32342015    -0.14800
C648        C  0.39688426  0.26583940  0.29029444     0.07300
C649        C  0.36005360  0.22292855  0.28177245    -0.14800
C650        C  0.34835172  0.18673670  0.30699732    -0.14800
C651        C  0.37331242  0.19221313  0.34137143     0.07300
C652        C  0.41197379  0.23439361  0.34872859    -0.14800
H653        H  0.45194260  0.30363433  0.33092500     0.11300
H654        H  0.33889024  0.21767068  0.25634033     0.11300
H655        H  0.31888161  0.15464012  0.30001050     0.11300
H656        H  0.43215991  0.23965579  0.37484466     0.11300
C657        C  0.33297002  0.32876412  0.39802611    -0.14800
C658        C  0.33631515  0.36596695  0.37752151     0.07300
C659        C  0.33510702  0.40032328  0.39901058    -0.14800
C660        C  0.33043001  0.39773355  0.43966082    -0.14800
C661        C  0.32670282  0.36065857  0.46040651     0.07300
C662        C  0.32823107  0.32614453  0.43925964    -0.13000
H663        H  0.33433625  0.30199936  0.38230512     0.11300
H664        H  0.33785221  0.42965011  0.38445283     0.11300
H665        H  0.32953399  0.42505932  0.45482285     0.11300
H666        H  0.32513035  0.29699976  0.45444610     0.11300
C667        C  0.51676742  0.50354596  0.36885964    -0.14800
C668        C  0.52178746  0.48282239  0.33514395     0.07300
C669        C  0.56370084  0.48577524  0.32827782    -0.14800
C670        C  0.60055703  0.51155878  0.35308741    -0.14800
C671        C  0.59611272  0.53475425  0.38521114     0.07300
C672        C  0.55341327  0.52907422  0.39361104    -0.14800
H673        H  0.48488550  0.50140233  0.37542632     0.11300
H674        H  0.56863936  0.46988157  0.30270661     0.11300
H675        H  0.63303141  0.51549061  0.34577059     0.11300
H676        H  0.54874344  0.54621087  0.41839239     0.11300
C677        C  0.49731577  0.51928797  0.13817294    -0.14800
C678        C  0.48047339  0.52518533  0.17387995     0.07300
C679        C  0.48625703  0.56795339  0.18278374    -0.14800
C680        C  0.51109360  0.60466493  0.15768694    -0.14800
C681        C  0.53033999  0.59910756  0.12324862     0.07300
C682        C  0.52174623  0.55570046  0.11313701    -0.14800
H683        H  0.49278909  0.48672803  0.13005721     0.11300
H684        H  0.47342600  0.57354521  0.21002552     0.11300
H685        H  0.51754525  0.63775839  0.16642366     0.11300
H686        H  0.53587138  0.55024035  0.08662231     0.11300
C687        C  0.90971219  0.39944263  0.34852710    -0.14800
C688        C  0.93711916  0.40402153  0.38094977     0.07300
C689        C  0.97394777  0.44684397  0.38974477    -0.14800
C690        C  0.98485602  0.48360620  0.36541215    -0.14800
C691        C  0.95914230  0.47863854  0.33165269     0.07300
C692        C  0.92060093  0.43644008  0.32410336    -0.14800
H693        H  0.88137851  0.36685690  0.34083250     0.11300
H694        H  0.99563512  0.45162697  0.41468821     0.11300
H695        H  0.01434355  0.51563349  0.37243972     0.11300
H696        H  0.89988117  0.43148196  0.29840016     0.11300
C697        C  0.05996658  0.24142012  0.49040816    -0.14800
C698        C  0.06578989  0.26650925  0.45608785     0.07300
C699        C  0.10940604  0.30059725  0.44587143    -0.14800
C700        C  0.14586323  0.31172296  0.47075802    -0.14800
C701        C  0.13975681  0.28887598  0.50644887     0.07300
C702        C  0.09671502  0.25247881  0.51539541    -0.14800
H703        H  0.02669784  0.21528076  0.49917942     0.11300
H704        H  0.11503937  0.32031646  0.41941800     0.11300
H705        H  0.17863522  0.33931038  0.46260509     0.11300
H706        H  0.09097349  0.23401241  0.54262561     0.11300
C707        C  0.00072148  0.33324819  0.56437143    -0.14800
C708        C  0.96302874  0.32849572  0.54362471     0.07300
C709        C  0.92760833  0.32763247  0.56505596    -0.14800
C710        C  0.92981356  0.33180045  0.60591496    -0.14800
C711        C  0.96743950  0.33684449  0.62681277     0.07300
C712        C  0.00287884  0.33731851  0.60564912    -0.14800
H713        H  0.02836755  0.33357275  0.54877248     0.11300
H714        H  0.89785123  0.32368709  0.55028732     0.11300
H715        H  0.90185383  0.33126462  0.62114635     0.11300
H716        H  0.03251524  0.34160505  0.62088900     0.11300
C717        C  0.73041825  0.15762454  0.31831986    -0.14800
C718        C  0.73488763  0.13494590  0.28581299     0.07300
C719        C  0.77761201  0.14085516  0.27707875    -0.14800
C720        C  0.81427622  0.16607145  0.30185458    -0.14800
C721        C  0.80926940  0.18633500  0.33586761     0.07300
C722        C  0.76733563  0.18318509  0.34312196    -0.14800
H723        H  0.69790241  0.15343292  0.32591459     0.11300
H724        H  0.78228529  0.12409098  0.25200956     0.11300
H725        H  0.84618790  0.16838879  0.29503132     0.11300
H726        H  0.76243177  0.19868025  0.36899298     0.11300
C727        C  0.84583121  0.10251912  0.49153765    -0.14800
C728        C  0.84784307  0.14414528  0.49779846     0.07300
C729        C  0.82641226  0.14913266  0.53092691    -0.14800
C730        C  0.80156002  0.11285865  0.55596975    -0.14800
C731        C  0.79720817  0.07047437  0.54845545     0.07300
C732        C  0.82066591  0.06598034  0.51663931    -0.14800
H733        H  0.86223913  0.09762618  0.46639973     0.11300
H734        H  0.82774139  0.18080034  0.53697923     0.11300
H735        H  0.78413384  0.11760156  0.58039292     0.11300
H736        H  0.81769947  0.03370499  0.50995677     0.11300
C737        C  0.46856198  0.44403863  0.88918444    -0.14800
C738        C  0.46236541  0.40116526  0.88042427     0.07300
C739        C  0.48330894  0.39606410  0.84694040    -0.14800
C740        C  0.50813781  0.43271830  0.82176908    -0.14800
C741        C  0.51222594  0.47501401  0.82961828     0.07300
C742        C  0.49296619  0.48035423  0.86407908    -0.14800
H743        H  0.45302103  0.44923379  0.91482521     0.11300
H744        H  0.47868801  0.36335455  0.83918052     0.11300
H745        H  0.52268880  0.42751298  0.79545850     0.11300
H746        H  0.49590718  0.51250066  0.87132322     0.11300
C747        C  0.26879287  0.26539472  0.77243686    -0.14800
C748        C  0.30341434  0.30073027  0.79405850     0.07300
C749        C  0.33681984  0.33826723  0.77359030    -0.14800
C750        C  0.33503141  0.34033406  0.73226131    -0.14800
C751        C  0.29981413  0.30488466  0.71101926     0.07300
C752        C  0.26709119  0.26739838  0.73172621    -0.14800
H753        H  0.24263443  0.23571597  0.78691856     0.11300
H754        H  0.36427098  0.36576550  0.78941847     0.11300
H755        H  0.36056607  0.36980752  0.71707772     0.11300
H756        H  0.23955584  0.23933978  0.71648066     0.11300
C757        C  0.33099121  0.33496476  0.06490337    -0.14800
C758        C  0.36235158  0.32753338  0.04450187     0.07300
C759        C  0.39571492  0.32461365  0.06623143    -0.14800
C760        C  0.39821318  0.32960848  0.10702541    -0.14800
C761        C  0.36729482  0.33742103  0.12751057     0.07300
C762        C  0.33338149  0.33976346  0.10610690    -0.14800
H763        H  0.30462693  0.33697258  0.04908674     0.11300
H764        H  0.42022255  0.31849715  0.05174293     0.11300
H765        H  0.42467008  0.32746156  0.12255621     0.11300
H766        H  0.30932244  0.34616450  0.12109439     0.11300
C767        C  0.85051203  0.16774064  0.03362817    -0.14800
C768        C  0.85634580  0.14840438  0.99935200     0.07300
C769        C  0.89893410  0.15326553  0.99180021    -0.14800
C770        C  0.93559220  0.17965938  0.01659427    -0.14800
C771        C  0.93019681  0.20150664  0.04930264     0.07300
C772        C  0.88694241  0.19388216  0.05832177    -0.14800
H773        H  0.81806151  0.16405826  0.04070331     0.11300
H774        H  0.90446746  0.13851212  0.96574561     0.11300
H775        H  0.96858730  0.18518923  0.00881396     0.11300
H776        H  0.88162115  0.20995464  0.08355521     0.11300
C777        C  0.06297578  0.40492465  0.94014321    -0.14800
C778        C  0.03210060  0.36616471  0.96059819     0.07300
C779        C  0.99867852  0.32947257  0.93908742    -0.14800
C780        C  0.99695566  0.33140608  0.89777054    -0.14800
C781        C  0.02855445  0.37013005  0.87741371     0.07300
C782        C  0.06120746  0.40690675  0.89929880    -0.14800
H783        H  0.08900385  0.43387985  0.95572573     0.11300
H784        H  0.97462231  0.29898629  0.95407796     0.11300
H785        H  0.97103174  0.30273313  0.88184106     0.11300
H786        H  0.08580177  0.43758542  0.88489802     0.11300
C787        C  0.08925121  0.48877190  0.15647785    -0.14800
C788        C  0.06448888  0.46941644  0.12193258     0.07300
C789        C  0.03029499  0.47863967  0.11121577    -0.14800
C790        C  0.01886596  0.50391659  0.13581918    -0.14800
C791        C  0.04152240  0.52083901  0.17167495     0.07300
C792        C  0.07789485  0.51434300  0.18114632    -0.14800
H793        H  0.11537408  0.48178520  0.16567038     0.11300
H794        H  0.01077364  0.46437610  0.08459230     0.11300
H795        H  0.99125909  0.50893988  0.12732811     0.11300
H796        H  0.09616347  0.52712472  0.20855508     0.11300
C797        C  0.00534880  0.34075346  0.23226736    -0.14800
C798        C  0.00127242  0.30413516  0.21023183     0.07300
C799        C  0.99250765  0.26473120  0.23009742    -0.14800
C800        C  0.98866789  0.26202803  0.27090401    -0.14800
C801        C  0.99353499  0.29868888  0.29330215     0.07300
C802        C  0.00157247  0.33807697  0.27353858    -0.14800
H803        H  0.01250411  0.37171373  0.21773183     0.11300
H804        H  0.98895293  0.23581198  0.21407112     0.11300
H805        H  0.98186322  0.23088871  0.28486362     0.11300
H806        H  0.00492249  0.36670320  0.28990086     0.11300
C807        C  0.26828507  0.42464629  0.18379968    -0.14800
C808        C  0.26321270  0.39710367  0.21615911     0.07300
C809        C  0.22015721  0.36070043  0.22464557    -0.14800
C810        C  0.18364976  0.35024610  0.20000272    -0.14800
C811        C  0.18910169  0.37596381  0.16621658     0.07300
C812        C  0.23152451  0.41419116  0.15902802    -0.14800
H813        H  0.30110440  0.45267001  0.17635288     0.11300
H814        H  0.21501499  0.33895510  0.24952440     0.11300
H815        H  0.15140463  0.32099441  0.20678933     0.11300
H816        H  0.23682778  0.43486582  0.13332923     0.11300
C817        C  0.15183651  0.25580852  0.01307458    -0.14800
C818        C  0.14738673  0.29373677  0.00507329     0.07300
C819        C  0.16647172  0.31816108  0.97048747    -0.14800
C820        C  0.19176944  0.30684076  0.94583217    -0.14800
C821        C  0.19886146  0.27089409  0.95515909     0.07300
C822        C  0.17740781  0.24452261  0.98833078    -0.14800
H823        H  0.13731893  0.23607957  0.03938962     0.11300
H824        H  0.16313659  0.34706631  0.96305662     0.11300
H825        H  0.20757782  0.32764880  0.92029771     0.11300
H826        H  0.18258128  0.21690269  0.99644526     0.11300
C827        C  0.26903093  0.84307445  0.68407224    -0.14800
C828        C  0.26384109  0.86491249  0.71689195     0.07300
C829        C  0.22082462  0.85813478  0.72561349    -0.14800
C830        C  0.18456389  0.83309102  0.70044696    -0.14800
C831        C  0.19029638  0.81390656  0.66603594     0.07300
C832        C  0.23249956  0.81769314  0.65883708    -0.14800
H833        H  0.30181838  0.84792721  0.67653576     0.11300
H834        H  0.21563174  0.87419675  0.75094321     0.11300
H835        H  0.15237825  0.83013289  0.70728544     0.11300
H836        H  0.23789846  0.80292178  0.63270775     0.11300
C837        C  0.32834370  0.99376840  0.60544338    -0.14800
C838        C  0.36697125  0.02563810  0.62601481     0.07300
C839        C  0.40335393  0.05878080  0.60437310    -0.14800
C840        C  0.40099959  0.06097215  0.56363807    -0.14800
C841        C  0.36222753  0.03009709  0.54297131     0.07300
C842        C  0.32600573  0.99595942  0.56415880    -0.14800
H843        H  0.29998777  0.96743312  0.62119641     0.11300
H844        H  0.43396977  0.08357842  0.61888953     0.11300
H845        H  0.42966986  0.08749843  0.54832979     0.11300
H846        H  0.29556216  0.97182032  0.54899594     0.11300
C847        C  0.34445667  0.16092720  0.80393692    -0.14800
C848        C  0.37036967  0.18241824  0.83745689     0.07300
C849        C  0.40942224  0.17961793  0.84468946    -0.14800
C850        C  0.42078068  0.15388370  0.82014319    -0.14800
C851        C  0.39340058  0.13052195  0.78784150     0.07300
C852        C  0.35585850  0.13545402  0.77944371    -0.14800
H853        H  0.31451526  0.16270508  0.79715846     0.11300
H854        H  0.43029949  0.19587842  0.87019362     0.11300
H855        H  0.44962496  0.15044298  0.82761284     0.11300
H856        H  0.33408123  0.11808367  0.75467109     0.11300
C857        C  0.56635991  0.07845364  0.82358533    -0.14800
C858        C  0.52359197  0.04139351  0.83207384     0.07300
C859        C  0.51793465  0.01725296  0.86693100    -0.14800
C860        C  0.55458862  0.02800133  0.89146331    -0.14800
C861        C  0.59790761  0.06305927  0.88170993     0.07300
C862        C  0.60324960  0.08916979  0.84821486    -0.14800
H863        H  0.57178977  0.09782321  0.79697105     0.11300
H864        H  0.48537582  0.98900498  0.87467195     0.11300
H865        H  0.54934301  0.00744424  0.91725913     0.11300
H866        H  0.63631075  0.11606759  0.83979228     0.11300
C867        C  0.49935693  0.98208616  0.63638903    -0.14800
C868        C  0.48046914  0.95742579  0.67090205     0.07300
C869        C  0.48463493  0.91920857  0.67829888    -0.14800
C870        C  0.51017563  0.90815857  0.65326326    -0.14800
C871        C  0.53181077  0.93503173  0.62038699     0.07300
C872        C  0.52454798  0.97095937  0.61141569    -0.14800
H873        H  0.49606626  0.01110139  0.62932455     0.11300
H874        H  0.47007971  0.89916856  0.70445475     0.11300
H875        H  0.51533390  0.88044163  0.66102907     0.11300
H876        H  0.54035657  0.99206811  0.58603598     0.11300
C877        C  0.39579321  0.91038185  0.15305904    -0.14800
C878        C  0.40078868  0.93765579  0.12051262     0.07300
C879        C  0.44395894  0.97348155  0.11139481    -0.14800
C880        C  0.48060366  0.98402782  0.13588802    -0.14800
C881        C  0.47513422  0.95892538  0.17009182     0.07300
C882        C  0.43269491  0.92089617  0.17764922    -0.14800
H883        H  0.36291918  0.88274246  0.16092140     0.11300
H884        H  0.44904276  0.99490151  0.08626816     0.11300
H885        H  0.51292002  0.01299119  0.12876130     0.11300
H886        H  0.42742998  0.90062654  0.20363496     0.11300
C887        C  0.33920852  0.01084674  0.27157640    -0.14800
C888        C  0.30330048  0.00918703  0.29291918     0.07300
C889        C  0.26554944  0.00402601  0.27225043    -0.14800
C890        C  0.26321322  0.99999801  0.23147320    -0.14800
C891        C  0.29858165  0.00100619  0.20989056     0.07300
C892        C  0.33688719  0.00684788  0.23030337    -0.14800
H893        H  0.36905364  0.01552873  0.28669793     0.11300
H894        H  0.23734173  0.00282015  0.28762931     0.11300
H895        H  0.23315681  0.99555487  0.21693279     0.11300
H896        H  0.36464491  0.00761336  0.21449802     0.11300
C897        C  0.29921535  0.11352067  0.05913977    -0.14800
C898        C  0.26498522  0.06994272  0.04871393     0.07300
C899        C  0.24005879  0.06392688  0.01420449    -0.14800
C900        C  0.25151186  0.10042639  0.98909856    -0.14800
C901        C  0.28814664  0.14336005  0.99816742     0.07300
C902        C  0.31077135  0.14977350  0.03408855    -0.14800
H903        H  0.31876504  0.11918370  0.08577431     0.11300
H904        H  0.21383847  0.03061964  0.00531817     0.11300
H905        H  0.23322259  0.09453333  0.96168229     0.11300
H906        H  0.33849652  0.18257519  0.04227576     0.11300
C907        C  0.33817878  0.93829592  0.94045317    -0.14800
C908        C  0.32941623  0.96899273  0.96023379     0.07300
C909        C  0.32614943  0.00195269  0.93818050    -0.14800
C910        C  0.33077275  0.00339466  0.89694978    -0.14800
C911        C  0.33887065  0.97199246  0.87728865     0.07300
C912        C  0.34287922  0.93978576  0.89974278    -0.14800
H913        H  0.34112861  0.91260721  0.95647995     0.11300
H914        H  0.31903094  0.02582138  0.95264809     0.11300
H915        H  0.32799756  0.02894875  0.88053815     0.11300
H916        H  0.34959427  0.91532692  0.88590716     0.11300
C917        C  0.09836222  0.84905314  0.01271518    -0.14800
C918        C  0.14078773  0.85355422  0.00489274     0.07300
C919        C  0.14630833  0.83478664  0.97011808    -0.14800
C920        C  0.10981285  0.80967372  0.94512728    -0.14800
C921        C  0.06667033  0.80235047  0.95430564     0.07300
C922        C  0.06157825  0.82358868  0.98764188    -0.14800
H923        H  0.09304766  0.86344176  0.03913975     0.11300
H924        H  0.17858003  0.83821788  0.96278191     0.11300
H925        H  0.11499260  0.79407816  0.91945090     0.11300
H926        H  0.02873574  0.81829759  0.99561496     0.11300
C927        C  0.17899274  0.77038666  0.15798959    -0.14800
C928        C  0.18359779  0.81283487  0.16601416     0.07300
C929        C  0.16439368  0.81827119  0.20051933    -0.14800
C930        C  0.13874723  0.78162089  0.22500503    -0.14800
C931        C  0.13147441  0.73851021  0.21559508     0.07300
C932        C  0.15310266  0.73351296  0.18257257    -0.14800
H933        H  0.19359930  0.76511063  0.13172081     0.11300
H934        H  0.16782367  0.85055593  0.20795225     0.11300
H935        H  0.12279899  0.78666386  0.25045980     0.11300
H936        H  0.14780935  0.70067318  0.17443132     0.11300
loop_ 
_geom_bond_atom_site_label_1 
_geom_bond_atom_site_label_2 
_geom_bond_distance 
_geom_bond_site_symmetry_2 
_ccdc_geom_bond_type 
Fe1          O17   2.069       .  S
Fe1           O7   2.054       .  S
Fe1          O14   2.050   1_565  S
Fe1           O6   2.072       .  S
Fe1          O12   1.941       .  S
Fe2           O5   2.075       .  S
Fe2           O9   2.085       .  S
Fe2          O13   2.084       .  S
Fe2          O18   2.066       .  S
Fe2          O12   1.929       .  S
Fe3          O21   2.068       .  S
Fe3           O8   2.079       .  S
Fe3          O15   2.090       .  S
Fe3           O4   2.087       .  S
Fe3          O12   1.927       .  S
O4           C11   1.281       .  A
O5           C19   1.275       .  A
O6           C11   1.278       .  A
O7           C10   1.260       .  A
O8           C20   1.276       .  A
O9           C22   1.280       .  A
C10          O15   1.268       .  A
C10         C878   1.481       .  S
C11         C908   1.481   1_554  S
O13          C16   1.266   1_565  A
O14          C16   1.258       .  A
C16         C898   1.474       .  S
O17          C22   1.278       .  A
O18          C20   1.270       .  A
C19          O21   1.271       .  A
C19         C928   1.484       .  S
C20         C918   1.485       .  S
C22         C891   1.482   1_565  S
Fe23         O39   2.073   1_565  S
Fe23         O29   2.051   1_565  S
Fe23         O36   2.049       .  S
Fe23         O28   2.076       .  S
Fe23         O34   1.939       .  S
Fe24         O27   2.074       .  S
Fe24         O31   2.088       .  S
Fe24         O35   2.088       .  S
Fe24         O40   2.065       .  S
Fe24         O34   1.926       .  S
Fe25         O43   2.066       .  S
Fe25         O30   2.083       .  S
Fe25         O37   2.101       .  S
Fe25         O26   2.086       .  S
Fe25         O34   1.925   1_545  S
O26          C33   1.281       .  A
O27          C41   1.275   1_565  A
O28          C33   1.280   1_565  A
O29          C32   1.257       .  A
O30          C42   1.277   1_545  A
O31          C44   1.282       .  A
C32          O37   1.269       .  A
C32         C851   1.485       .  S
C33         C838   1.486       .  S
O35          C38   1.266       .  A
O36          C38   1.257       .  A
C38         C828   1.477       .  S
O39          C44   1.281   1_545  A
O40          C42   1.271       .  A
C41          O43   1.270       .  A
C41         C858   1.483       .  S
C42         C868   1.486       .  S
C44         C911   1.485       .  S
Fe45         O61   2.072       .  S
Fe45         O51   2.052       .  S
Fe45         O58   2.052   1_455  S
Fe45         O50   2.070       .  S
Fe45         O56   1.940       .  S
Fe46         O49   2.074       .  S
Fe46         O53   2.087       .  S
Fe46         O57   2.085       .  S
Fe46         O62   2.066       .  S
Fe46         O56   1.928       .  S
Fe47         O65   2.070       .  S
Fe47         O52   2.079       .  S
Fe47         O59   2.091       .  S
Fe47         O48   2.091       .  S
Fe47         O56   1.928       .  S
O48          C55   1.282       .  A
O49          C63   1.275       .  A
O50          C55   1.278       .  A
O51          C54   1.258       .  A
O52          C64   1.276       .  A
O53          C66   1.281       .  A
C54          O59   1.268       .  A
C54         C788   1.478       .  S
C55         C778   1.482   1_554  S
O57          C60   1.267   1_455  A
O58          C60   1.259       .  A
C60         C771   1.478       .  S
O61          C66   1.279       .  A
O62          C64   1.271       .  A
C63          O65   1.272       .  A
C63         C811   1.485       .  S
C64         C818   1.485       .  S
C66         C798   1.481       .  S
Fe67         O83   2.047       .  S
Fe67         O73   2.073       .  S
Fe67         O80   2.071       .  S
Fe67         O72   2.052       .  S
Fe67         O78   1.939       .  S
Fe68         O71   2.065       .  S
Fe68         O75   2.097       .  S
Fe68         O79   2.092       .  S
Fe68         O84   2.076       .  S
Fe68         O78   1.925       .  S
Fe69         O87   2.087       .  S
Fe69         O74   2.058       .  S
Fe69         O81   2.080       .  S
Fe69         O70   2.095       .  S
Fe69         O78   1.926       .  S
O70          C77   1.268       .  A
O71          C85   1.270       .  A
O72          C77   1.258       .  A
O73          C76   1.279       .  A
O74          C86   1.270       .  A
O75          C88   1.268       .  A
C76          O81   1.281       .  A
C76         C748   1.482       .  S
C77         C821   1.482       .  S
O79          C82   1.282   1_556  A
O80          C82   1.280   1_556  A
C82         C758   1.485       .  S
O83          C88   1.256       .  A
O84          C86   1.276       .  A
C85          O87   1.277       .  A
C85         C848   1.489       .  S
C86         C901   1.478       .  S
C88         C738   1.481       .  S
Fe89        O105   2.073       .  S
Fe89         O95   2.052   1_655  S
Fe89        O102   2.052       .  S
Fe89         O94   2.071       .  S
Fe89        O100   1.939       .  S
Fe90         O93   2.078       .  S
Fe90         O97   2.088       .  S
Fe90        O101   2.092       .  S
Fe90        O106   2.062       .  S
Fe90        O100   1.928       .  S
Fe91        O109   2.062       .  S
Fe91         O96   2.078       .  S
Fe91        O103   2.091       .  S
Fe91         O92   2.087       .  S
Fe91        O100   1.929       .  S
O92          C99   1.281       .  A
O93         C107   1.276       .  A
O94          C99   1.279       .  A
O95          C98   1.259       .  A
O96         C108   1.275       .  A
O97         C110   1.281       .  A
C98         O103   1.267   1_455  A
C98         C698   1.479       .  S
C99         C801   1.484       .  S
O101        C104   1.268       .  A
O102        C104   1.258       .  A
C104        C688   1.482       .  S
O105        C110   1.280       .  A
O106        C108   1.270       .  A
C107        O109   1.270       .  A
C107        C728   1.484       .  S
C108        C721   1.483       .  S
C110        C708   1.485       .  S
Fe111       O127   2.049       .  S
Fe111       O117   2.071       .  S
Fe111       O124   2.068       .  S
Fe111       O116   2.053       .  S
Fe111       O122   1.939       .  S
Fe112       O115   2.064       .  S
Fe112       O119   2.098       .  S
Fe112       O123   2.093       .  S
Fe112       O128   2.081       .  S
Fe112       O122   1.927       .  S
Fe113       O131   2.079       .  S
Fe113       O118   2.064       .  S
Fe113       O125   2.084       .  S
Fe113       O114   2.092       .  S
Fe113       O122   1.927       .  S
O114        C121   1.268       .  A
O115        C129   1.271       .  A
O116        C121   1.259       .  A
O117        C120   1.279       .  A
O118        C130   1.270       .  A
O119        C132   1.268       .  A
C120        O125   1.281       .  A
C120        C658   1.482       .  S
C121        C808   1.481       .  S
O123        C126   1.282       .  A
O124        C126   1.279       .  A
C126        C761   1.482       .  S
O127        C132   1.257       .  A
O128        C130   1.277       .  A
C129        O131   1.276       .  A
C129        C668   1.485       .  S
C130        C678   1.484       .  S
C132        C648   1.483       .  S
Fe133       O149   2.074       .  S
Fe133       O139   2.053   1_655  S
Fe133       O146   2.050       .  S
Fe133       O138   2.076       .  S
Fe133       O144   1.938       .  S
Fe134       O137   2.080       .  S
Fe134       O141   2.089       .  S
Fe134       O145   2.096       .  S
Fe134       O150   2.065       .  S
Fe134       O144   1.930       .  S
Fe135       O153   2.058       .  S
Fe135       O140   2.075       .  S
Fe135       O147   2.088       .  S
Fe135       O136   2.084       .  S
Fe135       O144   1.930   1_455  S
O136        C143   1.281       .  A
O137        C151   1.277   1_655  A
O138        C143   1.280   1_655  A
O139        C142   1.258       .  A
O140        C152   1.275   1_455  A
O141        C154   1.282       .  A
C142        O147   1.266       .  A
C142        C618   1.479       .  S
C143        C781   1.485       .  S
O145        C148   1.268       .  A
O146        C148   1.258       .  A
C148        C608   1.482       .  S
O149        C154   1.280       .  A
O150        C152   1.270       .  A
C151        O153   1.269       .  A
C151        C628   1.483       .  S
C152        C638   1.484       .  S
C154        C711   1.484       .  S
Fe155       O171   2.070       .  S
Fe155       O161   2.051       .  S
Fe155       O168   2.053   1_545  S
Fe155       O160   2.071       .  S
Fe155       O166   1.940       .  S
Fe156       O159   2.078       .  S
Fe156       O163   2.085       .  S
Fe156       O167   2.090       .  S
Fe156       O172   2.062       .  S
Fe156       O166   1.926       .  S
Fe157       O175   2.068       .  S
Fe157       O162   2.082       .  S
Fe157       O169   2.096       .  S
Fe157       O158   2.091       .  S
Fe157       O166   1.927       .  S
O158        C165   1.283       .  A
O159        C173   1.276       .  A
O160        C165   1.279       .  A
O161        C164   1.258       .  A
O162        C174   1.277       .  A
O163        C176   1.281       .  A
C164        O169   1.268       .  A
C164        C581   1.481       .  S
C165        C841   1.482       .  S
O167        C170   1.267   1_545  A
O168        C170   1.258       .  A
C170        C588   1.481       .  S
O171        C176   1.279       .  A
O172        C174   1.270       .  A
C173        O175   1.271       .  A
C173        C651   1.486       .  S
C174        C598   1.485       .  S
C176        C888   1.480       .  S
Fe177       O193   2.048       .  S
Fe177       O183   2.073       .  S
Fe177       O190   2.073       .  S
Fe177       O182   2.049       .  S
Fe177       O188   1.939       .  S
Fe178       O181   2.063       .  S
Fe178       O185   2.090       .  S
Fe178       O189   2.082       .  S
Fe178       O194   2.076       .  S
Fe178       O188   1.927       .  S
Fe179       O197   2.080       .  S
Fe179       O184   2.066       .  S
Fe179       O191   2.082       .  S
Fe179       O180   2.095       .  S
Fe179       O188   1.927       .  S
O180        C187   1.268       .  A
O181        C195   1.270       .  A
O182        C187   1.257       .  A
O183        C186   1.279       .  A
O184        C196   1.270       .  A
O185        C198   1.267       .  A
C186        O191   1.281       .  A
C186        C751   1.481       .  S
C187        C601   1.481       .  S
O189        C192   1.281       .  A
O190        C192   1.280       .  A
C192        C661   1.481       .  S
O193        C198   1.257       .  A
O194        C196   1.275       .  A
C195        O197   1.276       .  A
C195        C621   1.484       .  S
C196        C701   1.483       .  S
C198        C568   1.479       .  S
Fe199       O215   2.047       .  S
Fe199       O205   2.076       .  S
Fe199       O212   2.070       .  S
Fe199       O204   2.051   1_455  S
Fe199       O210   1.937       .  S
Fe200       O203   2.063       .  S
Fe200       O207   2.093       .  S
Fe200       O211   2.086       .  S
Fe200       O216   2.078       .  S
Fe200       O210   1.929       .  S
Fe201       O219   2.074       .  S
Fe201       O206   2.066       .  S
Fe201       O213   2.090       .  S
Fe201       O202   2.090       .  S
Fe201       O210   1.925       .  S
O202        C209   1.267   1_455  A
O203        C217   1.270       .  A
O204        C209   1.258       .  A
O205        C208   1.280       .  A
O206        C218   1.271       .  A
O207        C220   1.267       .  A
C208        O213   1.282       .  A
C208        C558   1.482       .  S
C209        C538   1.480       .  S
O211        C214   1.281       .  A
O212        C214   1.280       .  A
C214        C548   1.483       .  S
O215        C220   1.257       .  A
O216        C218   1.276       .  A
C217        O219   1.275       .  A
C217        C831   1.482       .  S
C218        C591   1.485       .  S
C220        C631   1.480       .  S
Fe221       O237   2.049   1_565  S
Fe221       O227   2.076       .  S
Fe221       O234   2.073       .  S
Fe221       O226   2.051       .  S
Fe221       O232   1.939       .  S
Fe222       O225   2.056       .  S
Fe222       O229   2.092       .  S
Fe222       O233   2.081       .  S
Fe222       O238   2.081       .  S
Fe222       O232   1.927       .  S
Fe223       O241   2.082       .  S
Fe223       O228   2.067       .  S
Fe223       O235   2.085       .  S
Fe223       O224   2.096       .  S
Fe223       O232   1.926       .  S
O224        C231   1.268       .  A
O225        C239   1.269       .  A
O226        C231   1.258       .  A
O227        C230   1.280       .  A
O228        C240   1.271       .  A
O229        C242   1.267   1_565  A
C230        O235   1.282       .  A
C230        C518   1.485       .  S
C231        C871   1.482       .  S
O233        C236   1.280       .  A
O234        C236   1.280       .  A
C236        C528   1.481       .  S
O237        C242   1.257       .  A
O238        C240   1.277       .  A
C239        O241   1.276       .  A
C239        C501   1.483       .  S
C240        C508   1.486       .  S
C242        C731   1.480       .  S
Fe243       O259   2.053   1_655  S
Fe243       O249   2.069       .  S
Fe243       O256   2.070       .  S
Fe243       O248   2.050       .  S
Fe243       O254   1.938       .  S
Fe244       O247   2.063       .  S
Fe244       O251   2.091       .  S
Fe244       O255   2.085       .  S
Fe244       O260   2.079       .  S
Fe244       O254   1.927   1_455  S
Fe245       O263   2.078       .  S
Fe245       O250   2.065       .  S
Fe245       O257   2.089       .  S
Fe245       O246   2.094       .  S
Fe245       O254   1.927       .  S
O246        C253   1.268       .  A
O247        C261   1.270       .  A
O248        C253   1.258       .  A
O249        C252   1.279       .  A
O250        C262   1.271       .  A
O251        C264   1.268       .  A
C252        O257   1.282       .  A
C252        C488   1.483       .  S
C253        C478   1.481       .  S
O255        C258   1.281       .  A
O256        C258   1.278   1_655  A
C258        C551   1.477       .  S
O259        C264   1.259       .  A
O260        C262   1.276   1_455  A
C261        O263   1.276   1_455  A
C261        C791   1.483       .  S
C262        C691   1.485       .  S
C264        C931   1.480       .  S
Fe265       O281   2.072       .  S
Fe265       O271   2.049       .  S
Fe265       O278   2.051       .  S
Fe265       O270   2.071       .  S
Fe265       O276   1.940       .  S
Fe266       O269   2.076       .  S
Fe266       O273   2.086       .  S
Fe266       O277   2.091       .  S
Fe266       O282   2.066       .  S
Fe266       O276   1.929       .  S
Fe267       O285   2.067       .  S
Fe267       O272   2.076       .  S
Fe267       O279   2.091       .  S
Fe267       O268   2.090       .  S
Fe267       O276   1.927       .  S
O268        C275   1.282       .  A
O269        C283   1.275       .  A
O270        C275   1.280       .  A
O271        C274   1.257       .  A
O272        C284   1.275       .  A
O273        C286   1.281       .  A
C274        O279   1.267       .  A
C274        C498   1.478       .  S
C275        C468   1.482       .  S
O277        C280   1.267       .  A
O278        C280   1.258       .  A
C280        C671   1.480       .  S
O281        C286   1.279       .  A
O282        C284   1.270       .  A
C283        O285   1.271       .  A
C283        C541   1.484       .  S
C284        C481   1.484       .  S
C286        C458   1.482       .  S
Fe287       O303   2.073       .  S
Fe287       O293   2.050       .  S
Fe287       O300   2.048       .  S
Fe287       O292   2.071       .  S
Fe287       O298   1.939       .  S
Fe288       O291   2.076       .  S
Fe288       O295   2.084       .  S
Fe288       O299   2.092       .  S
Fe288       O304   2.065       .  S
Fe288       O298   1.927       .  S
Fe289       O307   2.062       .  S
Fe289       O294   2.080       .  S
Fe289       O301   2.095       .  S
Fe289       O290   2.092       .  S
Fe289       O298   1.927       .  S
O290        C297   1.283       .  A
O291        C305   1.275       .  A
O292        C297   1.280       .  A
O293        C296   1.257       .  A
O294        C306   1.276       .  A
O295        C308   1.281       .  A
C296        O301   1.267       .  A
C296        C511   1.482       .  S
C297        C448   1.486       .  S
O299        C302   1.268       .  A
O300        C302   1.258       .  A
C302        C438   1.479       .  S
O303        C308   1.280       .  A
O304        C306   1.270       .  A
C305        O307   1.270       .  A
C305        C571   1.483       .  S
C306        C741   1.484       .  S
C308        C461   1.483       .  S
Fe309       O325   2.050   1_545  S
Fe309       O315   2.070       .  S
Fe309       O322   2.064       .  S
Fe309       O314   2.053       .  S
Fe309       O320   1.939       .  S
Fe310       O313   2.065       .  S
Fe310       O317   2.094       .  S
Fe310       O321   2.088       .  S
Fe310       O326   2.082       .  S
Fe310       O320   1.928       .  S
Fe311       O329   2.073       .  S
Fe311       O316   2.066       .  S
Fe311       O323   2.088       .  S
Fe311       O312   2.086       .  S
Fe311       O320   1.927       .  S
O312        C319   1.267       .  A
O313        C327   1.271       .  A
O314        C319   1.259       .  A
O315        C318   1.278       .  A
O316        C328   1.270       .  A
O317        C330   1.268   1_545  A
C318        O323   1.281       .  A
C318        C428   1.480   1_556  S
C319        C861   1.478       .  S
O321        C324   1.281       .  A
O322        C324   1.278       .  A
C324        C531   1.479       .  S
O325        C330   1.258       .  A
O326        C328   1.277       .  A
C327        O329   1.275       .  A
C327        C768   1.482       .  S
C328        C611   1.486       .  S
C330        C418   1.479       .  S
Fe331       O347   2.048       .  S
Fe331       O337   2.075       .  S
Fe331       O344   2.073   1_545  S
Fe331       O336   2.049   1_545  S
Fe331       O342   1.940       .  S
Fe332       O335   2.067       .  S
Fe332       O339   2.093       .  S
Fe332       O343   2.088       .  S
Fe332       O348   2.076       .  S
Fe332       O342   1.927       .  S
Fe333       O351   2.079       .  S
Fe333       O338   2.068       .  S
Fe333       O345   2.088       .  S
Fe333       O334   2.093       .  S
Fe333       O342   1.926   1_565  S
O334        C341   1.267       .  A
O335        C349   1.271       .  A
O336        C341   1.257       .  A
O337        C340   1.280   1_545  A
O338        C350   1.271       .  A
O339        C352   1.267       .  A
C340        O345   1.283       .  A
C340        C521   1.483       .  S
C341        C408   1.481       .  S
O343        C346   1.282       .  A
O344        C346   1.280   1_565  A
C346        C431   1.485       .  S
O347        C352   1.256       .  A
O348        C350   1.276   1_545  A
C349        O351   1.276   1_545  A
C349        C578   1.485       .  S
C350        C881   1.484       .  S
C352        C718   1.479       .  S
Fe353       O369   2.048       .  S
Fe353       O359   2.072       .  S
Fe353       O366   2.074       .  S
Fe353       O358   2.049   1_655  S
Fe353       O364   1.939       .  S
Fe354       O357   2.060       .  S
Fe354       O361   2.093       .  S
Fe354       O365   2.086       .  S
Fe354       O370   2.077       .  S
Fe354       O364   1.928       .  S
Fe355       O373   2.079       .  S
Fe355       O360   2.069       .  S
Fe355       O367   2.093       .  S
Fe355       O356   2.097       .  S
Fe355       O364   1.927       .  S
O356        C363   1.267   1_655  A
O357        C371   1.269       .  A
O358        C363   1.257       .  A
O359        C362   1.280       .  A
O360        C372   1.272       .  A
O361        C374   1.267       .  A
C362        O367   1.283       .  A
C362        C561   1.487       .  S
C363        C921   1.482       .  S
O365        C368   1.281   1_556  A
O366        C368   1.280   1_556  A
C368        C491   1.482       .  S
O369        C374   1.257       .  A
O370        C372   1.276       .  A
C371        O373   1.276       .  A
C371        C441   1.483       .  S
C372        C398   1.486       .  S
C374        C641   1.481       .  S
Fe375       O391   2.074       .  S
Fe375       O381   2.051       .  S
Fe375       O388   2.049       .  S
Fe375       O380   2.076       .  S
Fe375       O386   1.937       .  S
Fe376       O379   2.082       .  S
Fe376       O383   2.090       .  S
Fe376       O387   2.095       .  S
Fe376       O392   2.065       .  S
Fe376       O386   1.926       .  S
Fe377       O395   2.060       .  S
Fe377       O382   2.078       .  S
Fe377       O389   2.094       .  S
Fe377       O378   2.085       .  S
Fe377       O386   1.928       .  S
O378        C385   1.281       .  A
O379        C393   1.277       .  A
O380        C385   1.280       .  A
O381        C384   1.258       .  A
O382        C394   1.276       .  A
O383        C396   1.282       .  A
C384        O389   1.268       .  A
C384        C401   1.483       .  S
C385        C471   1.485       .  S
O387        C390   1.268       .  A
O388        C390   1.257       .  A
C390        C681   1.480       .  S
O391        C396   1.280       .  A
O392        C394   1.271       .  A
C393        O395   1.269       .  A
C393        C421   1.483       .  S
C394        C411   1.485       .  S
C396        C451   1.483   1_554  S
C397        C398   1.402   1_554  A
C397        C402   1.393       .  A
C397        H403   1.083       .  S
C398        C399   1.412       .  A
C399        C400   1.404   1_556  A
C399        H404   1.082       .  S
C400        C401   1.404       .  A
C400        H405   1.083       .  S
C401        C402   1.408       .  A
C402        H406   1.083       .  S
C407        C408   1.409       .  A
C407        C412   1.394       .  A
C407        H413   1.082       .  S
C408        C409   1.402       .  A
C409        C410   1.402       .  A
C409        H414   1.084       .  S
C410        C411   1.411       .  A
C410        H415   1.082       .  S
C411        C412   1.402       .  A
C412        H416   1.084       .  S
C417        C418   1.409       .  A
C417        C422   1.394       .  A
C417        H423   1.082       .  S
C418        C419   1.402       .  A
C419        C420   1.402   1_556  A
C419        H424   1.084       .  S
C420        C421   1.412       .  A
C420        H425   1.082       .  S
C421        C422   1.401   1_554  A
C422        H426   1.084       .  S
C427        C428   1.408   1_565  A
C427        C432   1.406       .  A
C427        H433   1.082       .  S
C428        C429   1.403       .  A
C429        C430   1.389       .  A
C429        H434   1.084       .  S
C430        C431   1.406       .  A
C430        H435   1.082       .  S
C431        C432   1.408   1_545  A
C432        H436   1.083       .  S
C437        C438   1.402       .  A
C437        C442   1.402       .  A
C437        H443   1.083       .  S
C438        C439   1.408       .  A
C439        C440   1.393       .  A
C439        H444   1.083       .  S
C440        C441   1.401       .  A
C440        H445   1.084       .  S
C441        C442   1.411       .  A
C442        H446   1.082       .  S
C447        C448   1.406       .  A
C447        C452   1.392       .  A
C447        H453   1.083       .  S
C448        C449   1.409       .  A
C449        C450   1.406       .  A
C449        H454   1.083       .  S
C450        C451   1.407       .  A
C450        H455   1.083       .  S
C451        C452   1.404       .  A
C452        H456   1.083       .  S
C457        C458   1.404       .  A
C457        C462   1.388       .  A
C457        H463   1.083       .  S
C458        C459   1.408       .  A
C459        C460   1.407       .  A
C459        H464   1.083       .  S
C460        C461   1.408       .  A
C460        H465   1.083       .  S
C461        C462   1.405       .  A
C462        H466   1.083       .  S
C467        C468   1.408       .  A
C467        C472   1.407       .  A
C467        H473   1.083       .  S
C468        C469   1.403       .  A
C469        C470   1.390       .  A
C469        H474   1.083       .  S
C470        C471   1.406       .  A
C470        H475   1.083       .  S
C471        C472   1.408       .  A
C472        H476   1.083       .  S
C477        C478   1.403       .  A
C477        C482   1.404       .  A
C477        H483   1.084       .  S
C478        C479   1.408       .  A
C479        C480   1.393       .  A
C479        H484   1.083       .  S
C480        C481   1.401       .  A
C480        H485   1.084       .  S
C481        C482   1.411       .  A
C482        H486   1.082       .  S
C487        C488   1.405       .  A
C487        C492   1.390       .  A
C487        H493   1.083       .  S
C488        C489   1.408   1_655  A
C489        C490   1.406   1_455  A
C489        H494   1.083       .  S
C490        C491   1.407       .  A
C490        H495   1.083   1_655  S
C491        C492   1.405       .  A
C492        H496   1.084       .  S
C497        C498   1.409       .  A
C497        C502   1.395       .  A
C497        H503   1.082       .  S
C498        C499   1.401       .  A
C499        C500   1.401       .  A
C499        H504   1.084       .  S
C500        C501   1.411       .  A
C500        H505   1.082       .  S
C501        C502   1.401       .  A
C502        H506   1.084       .  S
C507        C508   1.411       .  A
C507        C512   1.403       .  A
C507        H513   1.082       .  S
C508        C509   1.402       .  A
C509        C510   1.395       .  A
C509        H514   1.084       .  S
C510        C511   1.408       .  A
C510        H515   1.082       .  S
C511        C512   1.403       .  A
C512        H516   1.084       .  S
C517        C518   1.405       .  A
C517        C522   1.388       .  A
C517        H523   1.082       .  S
C518        C519   1.409   1_565  A
C519        C520   1.408       .  A
C519        H524   1.084       .  S
C520        C521   1.409   1_545  A
C520        H525   1.082       .  S
C521        C522   1.403       .  A
C522        H526   1.084       .  S
C527        C528   1.407       .  A
C527        C532   1.404   1_565  A
C527        H533   1.083       .  S
C528        C529   1.406       .  A
C529        C530   1.389       .  A
C529        H534   1.083       .  S
C530        C531   1.403   1_565  A
C530        H535   1.083       .  S
C531        C532   1.407       .  A
C532        H536   1.083       .  S
C537        C538   1.408       .  A
C537        C542   1.394       .  A
C537        H543   1.083       .  S
C538        C539   1.403       .  A
C539        C540   1.403       .  A
C539        H544   1.084       .  S
C540        C541   1.411       .  A
C540        H545   1.082       .  S
C541        C542   1.402       .  A
C542        H546   1.084       .  S
C547        C548   1.408   1_655  A
C547        C552   1.405       .  A
C547        H553   1.082       .  S
C548        C549   1.406       .  A
C549        C550   1.389       .  A
C549        H554   1.083       .  S
C550        C551   1.402       .  A
C550        H555   1.083       .  S
C551        C552   1.407   1_455  A
C552        H556   1.084       .  S
C557        C558   1.403   1_655  A
C557        C562   1.391       .  A
C557        H563   1.083       .  S
C558        C559   1.407       .  A
C559        C560   1.407       .  A
C559        H564   1.084       .  S
C560        C561   1.409   1_455  A
C560        H565   1.082       .  S
C561        C562   1.406       .  A
C562        H566   1.083       .  S
C567        C568   1.409       .  A
C567        C572   1.393       .  A
C567        H573   1.083       .  S
C568        C569   1.402       .  A
C569        C570   1.402       .  A
C569        H574   1.084       .  S
C570        C571   1.411       .  A
C570        H575   1.082       .  S
C571        C572   1.401       .  A
C572        H576   1.084       .  S
C577        C578   1.411       .  A
C577        C582   1.404       .  A
C577        H583   1.082       .  S
C578        C579   1.402       .  A
C579        C580   1.395       .  A
C579        H584   1.084   1_545  S
C580        C581   1.408       .  A
C580        H585   1.083       .  S
C581        C582   1.403       .  A
C582        H586   1.084       .  S
C587        C588   1.403       .  A
C587        C592   1.402       .  A
C587        H593   1.083       .  S
C588        C589   1.408       .  A
C589        C590   1.395       .  A
C589        H594   1.083       .  S
C590        C591   1.403       .  A
C590        H595   1.083       .  S
C591        C592   1.411       .  A
C592        H596   1.082       .  S
C597        C598   1.412       .  A
C597        C602   1.403       .  A
C597        H603   1.082       .  S
C598        C599   1.401       .  A
C599        C600   1.394       .  A
C599        H604   1.084       .  S
C600        C601   1.409       .  A
C600        H605   1.082       .  S
C601        C602   1.402       .  A
C602        H606   1.084       .  S
C607        C608   1.409       .  A
C607        C612   1.395       .  A
C607        H613   1.082       .  S
C608        C609   1.403       .  A
C609        C610   1.404       .  A
C609        H614   1.084       .  S
C610        C611   1.412       .  A
C610        H615   1.082       .  S
C611        C612   1.402       .  A
C612        H616   1.084       .  S
C617        C618   1.403       .  A
C617        C622   1.402       .  A
C617        H623   1.083       .  S
C618        C619   1.408       .  A
C619        C620   1.394       .  A
C619        H624   1.083       .  S
C620        C621   1.402       .  A
C620        H625   1.083       .  S
C621        C622   1.411       .  A
C622        H626   1.083       .  S
C627        C628   1.412       .  A
C627        C632   1.403       .  A
C627        H633   1.082       .  S
C628        C629   1.400       .  A
C629        C630   1.392       .  A
C629        H634   1.084   1_455  S
C630        C631   1.409       .  A
C630        H635   1.083       .  S
C631        C632   1.402       .  A
C632        H636   1.084       .  S
C637        C638   1.402       .  A
C637        C642   1.393       .  A
C637        H643   1.084   1_655  S
C638        C639   1.411       .  A
C639        C640   1.403       .  A
C639        H644   1.082       .  S
C640        C641   1.403       .  A
C640        H645   1.084       .  S
C641        C642   1.409       .  A
C642        H646   1.083   1_655  S
C647        C648   1.404       .  A
C647        C652   1.405       .  A
C647        H653   1.084       .  S
C648        C649   1.408       .  A
C649        C650   1.394       .  A
C649        H654   1.082       .  S
C650        C651   1.402       .  A
C650        H655   1.084       .  S
C651        C652   1.412       .  A
C652        H656   1.082       .  S
C657        C658   1.409       .  A
C657        C662   1.407       .  A
C657        H663   1.083       .  S
C658        C659   1.404       .  A
C659        C660   1.387       .  A
C659        H664   1.083       .  S
C660        C661   1.404       .  A
C660        H665   1.083       .  S
C661        C662   1.408       .  A
C662        H666   1.083       .  S
C667        C668   1.402       .  A
C667        C672   1.395       .  A
C667        H673   1.083       .  S
C668        C669   1.411       .  A
C669        C670   1.402       .  A
C669        H674   1.082       .  S
C670        C671   1.402       .  A
C670        H675   1.083       .  S
C671        C672   1.409       .  A
C672        H676   1.083       .  S
C677        C678   1.401       .  A
C677        C682   1.394       .  A
C677        H683   1.084       .  S
C678        C679   1.412       .  A
C679        C680   1.404       .  A
C679        H684   1.082       .  S
C680        C681   1.403       .  A
C680        H685   1.084       .  S
C681        C682   1.408       .  A
C682        H686   1.083       .  S
C687        C688   1.403       .  A
C687        C692   1.403       .  A
C687        H693   1.083       .  S
C688        C689   1.409       .  A
C689        C690   1.395       .  A
C689        H694   1.083       .  S
C690        C691   1.402       .  A
C690        H695   1.083   1_655  S
C691        C692   1.411       .  A
C692        H696   1.082       .  S
C697        C698   1.403       .  A
C697        C702   1.404       .  A
C697        H703   1.083       .  S
C698        C699   1.407       .  A
C699        C700   1.394       .  A
C699        H704   1.083       .  S
C700        C701   1.402       .  A
C700        H705   1.084       .  S
C701        C702   1.411       .  A
C702        H706   1.082       .  S
C707        C708   1.408   1_455  A
C707        C712   1.406       .  A
C707        H713   1.083       .  S
C708        C709   1.406       .  A
C709        C710   1.392       .  A
C709        H714   1.083       .  S
C710        C711   1.405       .  A
C710        H715   1.083       .  S
C711        C712   1.407   1_655  A
C712        H716   1.083       .  S
C717        C718   1.402       .  A
C717        C722   1.402       .  A
C717        H723   1.084       .  S
C718        C719   1.409       .  A
C719        C720   1.394       .  A
C719        H724   1.083       .  S
C720        C721   1.401       .  A
C720        H725   1.084       .  S
C721        C722   1.411       .  A
C722        H726   1.082       .  S
C727        C728   1.411       .  A
C727        C732   1.402       .  A
C727        H733   1.082       .  S
C728        C729   1.401       .  A
C729        C730   1.394       .  A
C729        H734   1.084       .  S
C730        C731   1.409       .  A
C730        H735   1.082       .  S
C731        C732   1.402       .  A
C732        H736   1.084       .  S
C737        C738   1.409       .  A
C737        C742   1.393       .  A
C737        H743   1.082       .  S
C738        C739   1.403       .  A
C739        C740   1.404       .  A
C739        H744   1.084       .  S
C740        C741   1.412       .  A
C740        H745   1.082       .  S
C741        C742   1.401       .  A
C742        H746   1.084       .  S
C747        C748   1.404       .  A
C747        C752   1.386       .  A
C747        H753   1.083       .  S
C748        C749   1.408       .  A
C749        C750   1.407       .  A
C749        H754   1.083       .  S
C750        C751   1.408       .  A
C750        H755   1.083       .  S
C751        C752   1.403       .  A
C752        H756   1.083       .  S
C757        C758   1.408       .  A
C757        C762   1.405       .  A
C757        H763   1.083       .  S
C758        C759   1.406       .  A
C759        C760   1.392       .  A
C759        H764   1.083       .  S
C760        C761   1.404       .  A
C760        H765   1.083       .  S
C761        C762   1.407       .  A
C762        H766   1.083       .  S
C767        C768   1.402   1_554  A
C767        C772   1.393       .  A
C767        H773   1.084       .  S
C768        C769   1.410       .  A
C769        C770   1.401   1_556  A
C769        H774   1.082       .  S
C770        C771   1.402       .  A
C770        H775   1.084       .  S
C771        C772   1.407       .  A
C772        H776   1.082       .  S
C777        C778   1.403       .  A
C777        C782   1.391       .  A
C777        H783   1.083       .  S
C778        C779   1.408   1_455  A
C779        C780   1.406       .  A
C779        H784   1.083       .  S
C780        C781   1.408   1_655  A
C780        H785   1.083       .  S
C781        C782   1.407       .  A
C782        H786   1.083       .  S
C787        C788   1.402       .  A
C787        C792   1.402       .  A
C787        H793   1.083       .  S
C788        C789   1.408       .  A
C789        C790   1.394       .  A
C789        H794   1.083       .  S
C790        C791   1.402       .  A
C790        H795   1.084   1_455  S
C791        C792   1.411       .  A
C792        H796   1.083       .  S
C797        C798   1.407       .  A
C797        C802   1.406       .  A
C797        H803   1.083       .  S
C798        C799   1.404   1_455  A
C799        C800   1.390       .  A
C799        H804   1.083       .  S
C800        C801   1.406       .  A
C800        H805   1.083       .  S
C801        C802   1.408   1_655  A
C802        H806   1.083       .  S
C807        C808   1.403       .  A
C807        C812   1.403       .  A
C807        H813   1.084       .  S
C808        C809   1.408       .  A
C809        C810   1.394       .  A
C809        H814   1.082       .  S
C810        C811   1.403       .  A
C810        H815   1.084       .  S
C811        C812   1.411       .  A
C812        H816   1.082       .  S
C817        C818   1.411       .  A
C817        C822   1.403   1_554  A
C817        H823   1.082       .  S
C818        C819   1.402   1_554  A
C819        C820   1.395       .  A
C819        H824   1.084       .  S
C820        C821   1.409       .  A
C820        H825   1.082       .  S
C821        C822   1.403       .  A
C822        H826   1.084       .  S
C827        C828   1.402       .  A
C827        C832   1.402       .  A
C827        H833   1.084       .  S
C828        C829   1.408       .  A
C829        C830   1.393       .  A
C829        H834   1.083       .  S
C830        C831   1.402       .  A
C830        H835   1.084       .  S
C831        C832   1.410       .  A
C832        H836   1.082       .  S
C837        C838   1.408   1_565  A
C837        C842   1.407       .  A
C837        H843   1.083       .  S
C838        C839   1.406       .  A
C839        C840   1.389       .  A
C839        H844   1.083       .  S
C840        C841   1.403       .  A
C840        H845   1.083       .  S
C841        C842   1.408   1_545  A
C842        H846   1.083       .  S
C847        C848   1.402       .  A
C847        C852   1.397       .  A
C847        H853   1.084       .  S
C848        C849   1.413       .  A
C849        C850   1.404       .  A
C849        H854   1.082       .  S
C850        C851   1.402       .  A
C850        H855   1.084       .  S
C851        C852   1.410       .  A
C852        H856   1.082       .  S
C857        C858   1.410       .  A
C857        C862   1.402       .  A
C857        H863   1.082       .  S
C858        C859   1.402       .  A
C859        C860   1.394       .  A
C859        H864   1.084   1_545  S
C860        C861   1.407       .  A
C860        H865   1.082       .  S
C861        C862   1.403       .  A
C862        H866   1.084       .  S
C867        C868   1.402       .  A
C867        C872   1.395       .  A
C867        H873   1.084   1_565  S
C868        C869   1.412       .  A
C869        C870   1.404       .  A
C869        H874   1.082       .  S
C870        C871   1.403       .  A
C870        H875   1.084       .  S
C871        C872   1.409       .  A
C872        H876   1.082       .  S
C877        C878   1.403       .  A
C877        C882   1.403       .  A
C877        H883   1.084       .  S
C878        C879   1.408       .  A
C879        C880   1.394       .  A
C879        H884   1.083       .  S
C880        C881   1.402       .  A
C880        H885   1.084   1_565  S
C881        C882   1.411       .  A
C882        H886   1.082       .  S
C887        C888   1.408       .  A
C887        C892   1.405       .  A
C887        H893   1.083       .  S
C888        C889   1.403       .  A
C889        C890   1.389   1_545  A
C889        H894   1.084       .  S
C890        C891   1.405   1_565  A
C890        H895   1.082       .  S
C891        C892   1.408       .  A
C892        H896   1.083       .  S
C897        C898   1.407       .  A
C897        C902   1.392       .  A
C897        H903   1.082       .  S
C898        C899   1.402       .  A
C899        C900   1.400   1_554  A
C899        H904   1.084       .  S
C900        C901   1.410       .  A
C900        H905   1.082       .  S
C901        C902   1.401   1_556  A
C902        H906   1.084       .  S
C907        C908   1.403       .  A
C907        C912   1.389       .  A
C907        H913   1.084       .  S
C908        C909   1.408   1_565  A
C909        C910   1.407       .  A
C909        H914   1.083       .  S
C910        C911   1.408   1_545  A
C910        H915   1.083       .  S
C911        C912   1.406       .  A
C912        H916   1.083       .  S
C917        C918   1.412       .  A
C917        C922   1.404   1_554  A
C917        H923   1.082       .  S
C918        C919   1.402   1_554  A
C919        C920   1.394       .  A
C919        H924   1.084       .  S
C920        C921   1.408       .  A
C920        H925   1.083       .  S
C921        C922   1.403       .  A
C922        H926   1.084       .  S
C927        C928   1.411       .  A
C927        C932   1.403       .  A
C927        H933   1.082       .  S
C928        C929   1.402       .  A
C929        C930   1.395       .  A
C929        H934   1.084       .  S
C930        C931   1.408       .  A
C930        H935   1.083       .  S
C931        C932   1.403       .  A
C932        H936   1.083       .  S
