geometry optimzed in LAMMPS
_audit_creation_date              2020-12-01 
_audit_creation_method            'lammps2cif' 
_symmetry_space_group_name_H-M    'P1' 
_symmetry_Int_Tables_number       1 
_symmetry_cell_setting            triclinic 
loop_ 
_symmetry_equiv_pos_as_xyz 
  x,y,z 
_cell_length_a                    45.69365893 
_cell_length_b                    45.756417230131895 
_cell_length_c                    45.691900939388034 
_cell_angle_alpha                 89.93131358028245 
_cell_angle_beta                  90.07163642551008 
_cell_angle_gamma                 89.97216355230624 
loop_ 
_atom_site_label 
_atom_site_type_symbol 
_atom_site_fract_x 
_atom_site_fract_y 
_atom_site_fract_z 
_atom_site_charge 
Fe1        Fe  0.23024926  0.00409216  0.17904019     1.65800
Fe2        Fe  0.30392013  0.00124371  0.17766193     1.73200
Fe3        Fe  0.26710875  0.00251340  0.24377625     1.54400
O4          O  0.23308812  0.03310705  0.24683985    -0.81400
O5          O  0.31881740  0.96591561  0.20123670    -0.79700
O6          O  0.21688355  0.04036799  0.20128578    -0.83900
O7          O  0.20927438  0.97719424  0.20767162    -0.78800
O8          O  0.29722590  0.03635435  0.24544537    -0.80500
O9          O  0.28831146  0.97091054  0.14706230    -0.83300
C10         C  0.21398878  0.96411894  0.23157256     0.97500
C11         C  0.21691412  0.04633679  0.22836244     1.04900
O12         O  0.26721466  0.00255907  0.20037048    -1.12300
O13         O  0.29290769  0.03768097  0.15277166    -0.74700
O14         O  0.24511417  0.03163242  0.14705151    -0.78200
O15         O  0.23662864  0.96868881  0.24709306    -0.78900
C16         C  0.26841299  0.04586706  0.14271230     0.96400
O17         O  0.24057041  0.96752174  0.15596303    -0.76800
O18         O  0.32442612  0.03037227  0.20524650    -0.82000
C19         C  0.31752123  0.95903462  0.22810519     0.99000
C20         C  0.31895905  0.04292646  0.22936949     1.04900
O21         O  0.30083371  0.97183455  0.24636868    -0.77700
C22         C  0.26384255  0.95793090  0.14449472     1.03200
Fe23       Fe  0.77204960  0.99393800  0.17957731     1.65800
Fe24       Fe  0.69818314  0.99912944  0.17744433     1.73200
Fe25       Fe  0.73493948  0.99809398  0.24383968     1.54400
O26         O  0.76802184  0.96690263  0.24812128    -0.81400
O27         O  0.68276928  0.03389519  0.20121247    -0.79700
O28         O  0.78430834  0.95807416  0.20302042    -0.83900
O29         O  0.79359882  0.02144231  0.20738415    -0.78800
O30         O  0.70424541  0.96464679  0.24546380    -0.80500
O31         O  0.71445500  0.03024735  0.14814659    -0.83300
C32         C  0.78908219  0.03514809  0.23094508     0.97500
C33         C  0.78387884  0.95278786  0.23020006     1.04900
O34         O  0.73492036  0.99719114  0.20043175    -1.12300
O35         O  0.70849919  0.96334912  0.15144918    -0.74700
O36         O  0.75685802  0.96557457  0.14877476    -0.78200
O37         O  0.76634031  0.03123656  0.24652214    -0.78900
C38         C  0.73280920  0.95357422  0.14256256     0.96400
O39         O  0.76275687  0.02978649  0.15500401    -0.76800
O40         O  0.67797023  0.96922971  0.20431035    -0.82000
C41         C  0.68499385  0.04185736  0.22764465     0.99000
C42         C  0.68338703  0.95696137  0.22864467     1.04900
O43         O  0.70222368  0.02970900  0.24585218    -0.77700
C44         C  0.73977074  0.04123474  0.14461637     1.03200
Fe45       Fe  0.17837478  0.23396397  0.00962737     1.65800
Fe46       Fe  0.17510383  0.30788792  0.00628450     1.73200
Fe47       Fe  0.24243292  0.27215161  0.00564223     1.54400
O48         O  0.24858310  0.23984150  0.03750285    -0.81400
O49         O  0.19803990  0.32396648  0.97115512    -0.79700
O50         O  0.20489365  0.21875063  0.04193523    -0.83900
O51         O  0.20379411  0.21522889  0.97818268    -0.78800
O52         O  0.24461091  0.30379047  0.03826854    -0.80500
O53         O  0.14499360  0.29266088  0.97592004    -0.83300
C54         C  0.22845218  0.21914705  0.96621942     0.97500
C55         C  0.23152535  0.22114151  0.04896913     1.04900
O56         O  0.19880680  0.27139770  0.00714678    -1.12300
O57         O  0.14970536  0.29637221  0.04215908    -0.74700
O58         O  0.15105971  0.24781154  0.04213828    -0.78200
O59         O  0.24533919  0.24019843  0.97299334    -0.78900
C60         C  0.14336830  0.27184209  0.05336708     0.96400
O61         O  0.14992379  0.24436070  0.97687127    -0.76800
O62         O  0.20212581  0.32794710  0.03582166    -0.82000
C63         C  0.22403931  0.32128306  0.96196515     0.99000
C64         C  0.22730132  0.32386686  0.04672282     1.04900
O65         O  0.24262592  0.30397642  0.97333286    -0.77700
C66         C  0.13942757  0.26745056  0.96595407     1.03200
Fe67       Fe  0.18512398  0.77216108  0.00748126     1.65800
Fe68       Fe  0.17952750  0.69832797  0.00509737     1.73200
Fe69       Fe  0.24784293  0.73150061  0.00532653     1.54400
O70         O  0.25260288  0.76227306  0.97212014    -0.81400
O71         O  0.20481279  0.67798258  0.03643705    -0.79700
O72         O  0.21328754  0.79049209  0.97810478    -0.83900
O73         O  0.21006389  0.78550266  0.04187265    -0.78800
O74         O  0.24806300  0.69880668  0.97354574    -0.80500
O75         O  0.15328427  0.71135130  0.03972839    -0.83300
C76         C  0.23682643  0.78300415  0.04844928     0.97500
C77         C  0.23745965  0.78473615  0.96596337     1.04900
O78         O  0.20432723  0.73391798  0.00591398    -1.12300
O79         O  0.15149170  0.71461443  0.97293717    -0.74700
O80         O  0.15890078  0.76271792  0.97244670    -0.78200
O81         O  0.25386797  0.76465442  0.03633160    -0.78900
C82         C  0.14801421  0.73974644  0.96158625     0.96400
O83         O  0.15470810  0.75977797  0.03802777    -0.76800
O84         O  0.20293756  0.68033273  0.97126875    -0.82000
C85         C  0.22988770  0.68170187  0.04783097     0.99000
C86         C  0.22908362  0.68184791  0.96227395     1.04900
O87         O  0.24802067  0.70083435  0.03891785    -0.77700
C88         C  0.14640271  0.73618593  0.04976511     1.03200
Fe89       Fe  0.00017606  0.17886248  0.77928294     1.65800
Fe90       Fe  0.00202726  0.17542408  0.70521208     1.73200
Fe91       Fe  0.00155382  0.24283320  0.74046680     1.54400
O92         O  0.96952730  0.24771799  0.77304822    -0.81400
O93         O  0.03543640  0.19971915  0.68799170    -0.79700
O94         O  0.96719931  0.20420222  0.79486830    -0.83900
O95         O  0.03096536  0.20523982  0.79733521    -0.78800
O96         O  0.96871309  0.24406604  0.70894982    -0.80500
O97         O  0.03459018  0.14702396  0.72012501    -0.83300
C98         C  0.04184503  0.23026196  0.79309878     0.97500
C99         C  0.95886715  0.23039833  0.79207863     1.04900
O100        O  0.00123718  0.19922688  0.74158118    -1.12300
O101        O  0.96779731  0.14841028  0.71775696    -0.74700
O102        O  0.96845066  0.15041722  0.76632335    -0.78200
O103        O  0.03407021  0.24690683  0.77221991    -0.78900
C104        C  0.95721851  0.14199275  0.74254400     0.96400
O105        O  0.03385005  0.15174956  0.76852188    -0.76800
O106        O  0.97050829  0.20112653  0.68568718    -0.82000
C107        C  0.04501050  0.22554467  0.69067389     0.99000
C108        C  0.95966130  0.22636978  0.68947329     1.04900
O109        O  0.03412518  0.24400970  0.70841482    -0.77700
C110        C  0.04520787  0.14202013  0.74532984     1.03200
Fe111      Fe  0.00190892  0.18373002  0.23432925     1.65800
Fe112      Fe  0.00057251  0.17678873  0.30803859     1.73200
Fe113      Fe  0.00167683  0.24587581  0.27596709     1.54400
O114        O  0.03493917  0.25179417  0.24526126    -0.81400
O115        O  0.96830495  0.20139451  0.32699900    -0.79700
O116        O  0.03355712  0.21091244  0.21898852    -0.83900
O117        O  0.96950969  0.20997704  0.21911451    -0.78800
O118        O  0.03327564  0.24526715  0.30836870    -0.80500
O119        O  0.96691599  0.15016262  0.29251487    -0.83300
C120        C  0.96010775  0.23555569  0.22372037     0.97500
C121        C  0.04408755  0.23583609  0.22449106     1.04900
O122        O  0.00136989  0.20229264  0.27287680    -1.12300
O123        O  0.03382438  0.14925501  0.29354934    -0.74700
O124        O  0.03500615  0.15607542  0.24537842    -0.78200
O125        O  0.97009586  0.25206326  0.24367075    -0.78900
C126        C  0.04537420  0.14530756  0.26863488     0.96400
O127        O  0.96985310  0.15413690  0.24421115    -0.76800
O128        O  0.03318297  0.20049858  0.32802513    -0.82000
C129        C  0.95832714  0.22713422  0.32462699     0.99000
C130        C  0.04306111  0.22631866  0.32621228     1.04900
O131        O  0.96848243  0.24592591  0.30686273    -0.77700
C132        C  0.95776233  0.14417836  0.26699880     1.03200
Fe133      Fe  0.00089599  0.82073238  0.23432218     1.65800
Fe134      Fe  0.00199135  0.82520586  0.30842159     1.73200
Fe135      Fe  0.00311447  0.75749546  0.27399135     1.54400
O136        O  0.96885556  0.75193793  0.24417434    -0.81400
O137        O  0.03464880  0.80055495  0.32732012    -0.79700
O138        O  0.97120648  0.79230512  0.21705859    -0.83900
O139        O  0.03528844  0.79731273  0.21870243    -0.78800
O140        O  0.97222766  0.75573769  0.30782441    -0.80500
O141        O  0.03520282  0.85273697  0.29418244    -0.83300
C142        C  0.04428208  0.77128411  0.22121065     0.97500
C143        C  0.96029712  0.76759667  0.22282332     1.04900
O144        O  0.00201788  0.80098159  0.27234806    -1.12300
O145        O  0.96843915  0.85271045  0.29410118    -0.74700
O146        O  0.96599635  0.84545898  0.24600188    -0.78200
O147        O  0.03386904  0.75344124  0.23993600    -0.78900
C148        C  0.95598042  0.85597989  0.26945172     0.96400
O149        O  0.03060732  0.85203695  0.24584777    -0.76800
O150        O  0.96963116  0.80043872  0.32725125    -0.82000
C151        C  0.04655817  0.77591069  0.32291588     0.99000
C152        C  0.96113148  0.77415491  0.32556079     1.04900
O153        O  0.03764645  0.75792156  0.30364373    -0.77700
C154        C  0.04318448  0.86074505  0.26888912     1.03200
Fe155      Fe  0.82442962  0.76708148  0.00456770     1.65800
Fe156      Fe  0.82696315  0.69369938  0.00672383     1.73200
Fe157      Fe  0.76042915  0.72937046  0.00440945     1.54400
O158        O  0.75624090  0.75828988  0.03928838    -0.81400
O159        O  0.80122428  0.67419843  0.97531055    -0.79700
O160        O  0.79369146  0.78770378  0.02946880    -0.83900
O161        O  0.80363498  0.77914275  0.96676884    -0.78800
O162        O  0.75719377  0.69475547  0.03413776    -0.80500
O163        O  0.85367851  0.70571709  0.97211760    -0.83300
C164        C  0.77642838  0.78003415  0.96126145     0.97500
C165        C  0.77059858  0.78165999  0.04345348     1.04900
O166        O  0.80377529  0.72985470  0.00534467    -1.12300
O167        O  0.85528095  0.70952685  0.03921712    -0.74700
O168        O  0.84562914  0.75721846  0.04277031    -0.78200
O169        O  0.75774686  0.76447448  0.97490031    -0.78900
C170        C  0.85699562  0.73391704  0.05258113     0.96400
O171        O  0.85903225  0.75320988  0.97932767    -0.76800
O172        O  0.80233594  0.67711264  0.04032099    -0.82000
C173        C  0.77751949  0.68005027  0.96198203     0.99000
C174        C  0.77546110  0.67804544  0.04695109     1.04900
O175        O  0.76043282  0.70070451  0.96937152    -0.77700
C176        C  0.86520281  0.72998706  0.96570544     1.03200
Fe177      Fe  0.23322978  0.00528793  0.83332110     1.65800
Fe178      Fe  0.30650673  0.00166366  0.83539775     1.73200
Fe179      Fe  0.27025676  0.00392319  0.76920062     1.54400
O180        O  0.23941719  0.97031083  0.76486734    -0.81400
O181        O  0.32843977  0.02971540  0.80789953    -0.79700
O182        O  0.21103464  0.98146665  0.80266979    -0.83900
O183        O  0.22192076  0.04326591  0.81258573    -0.78800
O184        O  0.30392293  0.97298481  0.76691870    -0.80500
O185        O  0.29567452  0.03880008  0.85902718    -0.83300
C186        C  0.22061355  0.04837842  0.78531313     0.97500
C187        C  0.21544152  0.96818245  0.77882686     1.04900
O188        O  0.27014613  0.00341978  0.81236932    -1.12300
O189        O  0.28947053  0.97264968  0.86643985    -0.74700
O190        O  0.24252434  0.96699299  0.85443113    -0.78200
O191        O  0.23602139  0.03457004  0.76658566    -0.78900
C192        C  0.26545917  0.95861348  0.86758789     0.96400
O193        O  0.24876678  0.03020163  0.86744786    -0.76800
O194        O  0.32061715  0.96562279  0.81246590    -0.82000
C195        C  0.32259555  0.04348393  0.78453801     0.99000
C196        C  0.31977293  0.95928089  0.78542136     1.04900
O197        O  0.30042987  0.03786481  0.76861500    -0.77700
C198        C  0.27141986  0.04578700  0.87038841     1.03200
Fe199      Fe  0.00789450  0.82477686  0.77602807     1.65800
Fe200      Fe  0.00223303  0.82582336  0.70273568     1.73200
Fe201      Fe  0.00365425  0.76007394  0.74014026     1.54400
O202        O  0.03557885  0.75755068  0.77339267    -0.81400
O203        O  0.96738558  0.80178701  0.68796906    -0.79700
O204        O  0.04583084  0.80361442  0.78604339    -0.83900
O205        O  0.98422656  0.79515473  0.79971105    -0.78800
O206        O  0.03633388  0.75751255  0.70846693    -0.80500
O207        O  0.97107218  0.85500801  0.71949651    -0.83300
C208        C  0.96966169  0.77204231  0.79575992     0.97500
C209        C  0.05045856  0.77633767  0.78774712     1.04900
O210        O  0.00449639  0.80333800  0.73939099    -1.12300
O211        O  0.03822221  0.85207081  0.71242527    -0.74700
O212        O  0.03258066  0.85857861  0.75994448    -0.78200
O213        O  0.97075356  0.75774757  0.77194448    -0.78900
C214        C  0.04553793  0.86414584  0.73620036     0.96400
O215        O  0.96983625  0.84626530  0.76759391    -0.76800
O216        O  0.03176139  0.79877258  0.68239900    -0.82000
C217        C  0.95934841  0.77541500  0.69037239     0.99000
C218        C  0.04347630  0.77407884  0.68719770     1.04900
O219        O  0.97149196  0.75729491  0.70773989    -0.77700
C220        C  0.95900194  0.85729878  0.74453554     1.03200
Fe221      Fe  0.82516055  0.23110319  0.01192554     1.65800
Fe222      Fe  0.82550123  0.30478557  0.00727553     1.73200
Fe223      Fe  0.75969954  0.26678284  0.00793324     1.54400
O224        O  0.75738860  0.23444134  0.97551280    -0.81400
O225        O  0.79775237  0.32485120  0.03645529    -0.79700
O226        O  0.79819175  0.20931505  0.98415367    -0.83900
O227        O  0.80145354  0.21738771  0.04719191    -0.78800
O228        O  0.75750161  0.29848123  0.97524037    -0.80500
O229        O  0.85128699  0.29527218  0.04324807    -0.83300
C230        C  0.77437727  0.21775497  0.05305777     0.97500
C231        C  0.77388351  0.21241267  0.97137492     1.04900
O232        O  0.80325340  0.26763209  0.00905585    -1.12300
O233        O  0.85612547  0.28953563  0.97710270    -0.74700
O234        O  0.85015925  0.24126716  0.97622458    -0.78200
O235        O  0.75613987  0.23429813  0.03999319    -0.78900
C236        C  0.86065519  0.26462052  0.96574436     0.96400
O237        O  0.85497907  0.24696337  0.04106663    -0.76800
O238        O  0.80189807  0.31866624  0.97195472    -0.82000
C239        C  0.77313176  0.31972607  0.04815745     0.99000
C240        C  0.77584074  0.31551132  0.96309454     1.04900
O241        O  0.75678033  0.29848870  0.04058642    -0.77700
C242        C  0.86058840  0.27115497  0.05305284     1.03200
Fe243      Fe  0.77324912  0.99866572  0.82941314     1.65800
Fe244      Fe  0.69925004  0.99895277  0.83182076     1.73200
Fe245      Fe  0.73524110  0.99927419  0.76488016     1.54400
O246        O  0.76853664  0.03027927  0.76149778    -0.81400
O247        O  0.68114211  0.96668208  0.80647425    -0.79700
O248        O  0.78868204  0.03324201  0.80595509    -0.83900
O249        O  0.79163584  0.96940107  0.80148652    -0.78800
O250        O  0.70487240  0.03299345  0.76384290    -0.80500
O251        O  0.71300115  0.96512730  0.85953331    -0.83300
C252        C  0.78694137  0.95810032  0.77674224     0.97500
C253        C  0.78653108  0.04142501  0.77955556     1.04900
O254        O  0.73581631  0.99898022  0.80853379    -1.12300
O255        O  0.71250147  0.03229563  0.85965794    -0.74700
O256        O  0.76081263  0.02822316  0.86056903    -0.78200
O257        O  0.76577401  0.96568262  0.76039359    -0.78900
C258        C  0.73740534  0.04057971  0.86848380     0.96400
O259        O  0.76138756  0.96348261  0.85398458    -0.76800
O260        O  0.68132498  0.03174967  0.80671194    -0.82000
C261        C  0.68404139  0.95745359  0.78051831     0.99000
C262        C  0.68576164  0.04265587  0.78158617     1.04900
O263        O  0.70241541  0.96799160  0.76252304    -0.77700
C264        C  0.73770128  0.95292002  0.86353746     1.03200
Fe265      Fe  0.49865048  0.26915364  0.32910640     1.65800
Fe266      Fe  0.50334840  0.19533093  0.33364068     1.73200
Fe267      Fe  0.50292097  0.22983742  0.26563430     1.54400
O268        O  0.47012665  0.26103523  0.25914090    -0.81400
O269        O  0.53641151  0.17726543  0.30896134    -0.79700
O270        O  0.46673271  0.28391036  0.30193082    -0.83900
O271        O  0.53070150  0.28718418  0.30392737    -0.78800
O272        O  0.47114343  0.19738744  0.26459632    -0.80500
O273        O  0.53636564  0.21134991  0.36076263    -0.83300
C274        C  0.54221889  0.28314223  0.27909958     0.97500
C275        C  0.45887128  0.28022398  0.27571886     1.04900
O276        O  0.50169752  0.23134873  0.30928231    -1.12300
O277        O  0.46955894  0.20772865  0.36173173    -0.74700
O278        O  0.46551451  0.25572977  0.35582962    -0.78200
O279        O  0.53480868  0.26243445  0.26205020    -0.78900
C280        C  0.45647000  0.23177174  0.36612179     0.96400
O281        O  0.53092194  0.25958780  0.35855879    -0.76800
O282        O  0.47135686  0.17563766  0.30859223    -0.82000
C283        C  0.54617461  0.18030024  0.28320666     0.99000
C284        C  0.46148127  0.17857533  0.28275000     1.04900
O285        O  0.53593142  0.19877685  0.26514541    -0.77700
C286        C  0.54445701  0.23708202  0.36724542     1.03200
Fe287      Fe  0.32800693  0.49888144  0.27921349     1.65800
Fe288      Fe  0.33363281  0.50143891  0.20522854     1.73200
Fe289      Fe  0.26518573  0.50171578  0.23846527     1.54400
O290        O  0.25897286  0.46813262  0.26891032    -0.81400
O291        O  0.30931115  0.53439282  0.18645984    -0.79700
O292        O  0.30028179  0.46770190  0.29481299    -0.83900
O293        O  0.30317670  0.53162761  0.29587333    -0.78800
O294        O  0.26436528  0.47056815  0.20518281    -0.80500
O295        O  0.36064053  0.53441267  0.22073269    -0.83300
C296        C  0.27766895  0.54155461  0.29210462     0.97500
C297        C  0.27484826  0.45822852  0.28952095     1.04900
O298        O  0.30874643  0.50070678  0.24087883    -1.12300
O299        O  0.36081995  0.46729926  0.21897312    -0.74700
O300        O  0.35447587  0.46547628  0.26710297    -0.78200
O301        O  0.26063189  0.53274761  0.27187741    -0.78900
C302        C  0.36468248  0.45513050  0.24364820     0.96400
O303        O  0.35788533  0.53033158  0.26908116    -0.76800
O304        O  0.30907909  0.46981026  0.18537350    -0.82000
C305        C  0.28388868  0.54512063  0.18946165     0.99000
C306        C  0.28301978  0.46056154  0.18709510     1.04900
O307        O  0.26543888  0.53553015  0.20794354    -0.77700
C308        C  0.36673917  0.54320331  0.24628830     1.03200
Fe309      Fe  0.27538559  0.31808305  0.50391590     1.65800
Fe310      Fe  0.20145816  0.32595146  0.50697235     1.73200
Fe311      Fe  0.23287252  0.25672158  0.50860906     1.54400
O312        O  0.26379704  0.24849997  0.47594254    -0.81400
O313        O  0.18250929  0.30341463  0.54096576    -0.79700
O314        O  0.28955792  0.28969194  0.47266818    -0.83900
O315        O  0.29206543  0.29272652  0.53683371    -0.78800
O316        O  0.20027406  0.25619582  0.47691655    -0.80500
O317        O  0.21820737  0.35349399  0.53888173    -0.83300
C318        C  0.28663605  0.26812220  0.54827995     0.97500
C319        C  0.28421954  0.26374037  0.46485825     1.04900
O320        O  0.23649405  0.30008397  0.50647117    -1.12300
O321        O  0.21542971  0.35188220  0.47219737    -0.74700
O322        O  0.26353391  0.34503916  0.47003713    -0.78200
O323        O  0.26530424  0.25210249  0.54044024    -0.78900
C324        C  0.24002805  0.35560706  0.45991593     0.96400
O325        O  0.26644819  0.34809459  0.53578775    -0.76800
O326        O  0.18036786  0.30089283  0.47621992    -0.82000
C327        C  0.18448100  0.27792569  0.55164339     0.99000
C328        C  0.18203698  0.27479990  0.46705762     1.04900
O329        O  0.20187562  0.25863942  0.54177991    -0.77700
C330        C  0.24390222  0.35826016  0.54815490     1.03200
Fe331      Fe  0.27222688  0.67882522  0.51261130     1.65800
Fe332      Fe  0.19948811  0.67700330  0.50291773     1.73200
Fe333      Fe  0.23546565  0.74284369  0.50706990     1.54400
O334        O  0.26812374  0.74588935  0.53945852    -0.81400
O335        O  0.18759832  0.70017801  0.46620398    -0.79700
O336        O  0.27974475  0.69994393  0.55117258    -0.83900
O337        O  0.29626379  0.70926184  0.49021761    -0.78800
O338        O  0.20344758  0.74403009  0.53930264    -0.80500
O339        O  0.21872121  0.64681437  0.47432292    -0.83300
C340        C  0.29190065  0.73183017  0.47480924     0.97500
C341        C  0.28194056  0.72726353  0.55505037     1.04900
O342        O  0.23553477  0.69973096  0.50735196    -1.12300
O343        O  0.20740540  0.65220383  0.54017686    -0.74700
O344        O  0.25505681  0.64457904  0.53618275    -0.78200
O345        O  0.26763475  0.74543378  0.47476538    -0.78900
C346        C  0.23071180  0.63969677  0.54832767     0.96400
O347        O  0.26645863  0.65716117  0.47404896    -0.76800
O348        O  0.17631952  0.70430940  0.53027537    -0.82000
C349        C  0.18884314  0.72708183  0.45969413     0.99000
C350        C  0.18128103  0.72783734  0.54410333     1.04900
O351        O  0.20366876  0.74554212  0.47433997    -0.77700
C352        C  0.24418332  0.64472725  0.46316007     1.03200
Fe353      Fe  0.32679934  0.49574667  0.73453439     1.65800
Fe354      Fe  0.32869701  0.50085353  0.80763193     1.75600
Fe355      Fe  0.26291831  0.49977277  0.77106631     1.54400
O356        O  0.26067914  0.53372443  0.74070906    -0.81400
O357        O  0.30115733  0.47185336  0.82859338    -0.79700
O358        O  0.29559389  0.51790237  0.71098248    -0.83900
O359        O  0.30637686  0.45704784  0.72557121    -0.78800
O360        O  0.26023262  0.53060090  0.80473091    -0.80500
O361        O  0.35362312  0.46441595  0.79747850    -0.83300
C362        C  0.27895325  0.45347080  0.72308892     0.97500
C363        C  0.27320691  0.53338158  0.71592856     1.04900
O364        O  0.30595448  0.49895234  0.77136823    -1.12300
O365        O  0.35860566  0.53101364  0.78998708    -0.74700
O366        O  0.34712694  0.53453925  0.74250591    -0.78200
O367        O  0.26033296  0.46908145  0.73687698    -0.78900
C368        C  0.35961420  0.54420506  0.76535648     0.96400
O369        O  0.36198693  0.47269485  0.75062637    -0.76800
O370        O  0.30553707  0.53631179  0.82220982    -0.82000
C371        C  0.27716496  0.45913145  0.82262793     0.99000
C372        C  0.27878671  0.54347859  0.82107389     1.04900
O373        O  0.26109020  0.46593227  0.80093432    -0.77700
C374        C  0.36653640  0.45836643  0.77384252     1.03200
Fe375      Fe  0.49758451  0.73324173  0.32941045     1.65800
Fe376      Fe  0.50341259  0.80620961  0.33084366     1.73200
Fe377      Fe  0.49899531  0.76996330  0.26507564     1.54400
O378        O  0.53237793  0.73914646  0.26119155    -0.81400
O379        O  0.47472654  0.82852506  0.30368334    -0.79700
O380        O  0.52068110  0.71045344  0.29867060    -0.83900
O381        O  0.45893617  0.72339486  0.30939569    -0.78800
O382        O  0.53047433  0.80280419  0.26177009    -0.80500
O383        O  0.46694260  0.79654918  0.35601371    -0.83300
C384        C  0.45394405  0.72153343  0.28218270     0.97500
C385        C  0.53511478  0.71556126  0.27561440     1.04900
O386        O  0.50012306  0.76997933  0.30823407    -1.12300
O387        O  0.53350453  0.78849399  0.36092967    -0.74700
O388        O  0.53629128  0.74113633  0.34992336    -0.78200
O389        O  0.46794819  0.73630284  0.26310827    -0.78900
C390        C  0.54617848  0.76371006  0.36251962     0.96400
O391        O  0.47420338  0.74940096  0.36420600    -0.76800
O392        O  0.53916075  0.81903664  0.30709592    -0.82000
C393        C  0.46048584  0.82286664  0.28046857     0.99000
C394        C  0.54522074  0.81775405  0.28008404     1.04900
O395        O  0.46548156  0.80051906  0.26468312    -0.77700
C396        C  0.46043910  0.77290780  0.36880873     1.03200
Fe397      Fe  0.67576142  0.50529980  0.27810230     1.65800
Fe398      Fe  0.67246504  0.49854404  0.20490314     1.73200
Fe399      Fe  0.73925989  0.50043752  0.24031722     1.54400
O400        O  0.74362996  0.53113405  0.27434789    -0.81400
O401        O  0.69541618  0.46279354  0.19061645    -0.79700
O402        O  0.69813023  0.54266991  0.28762841    -0.83900
O403        O  0.70578595  0.48073320  0.30017459    -0.78800
O404        O  0.74013779  0.53402303  0.20978634    -0.80500
O405        O  0.64295683  0.46858498  0.22301375    -0.83300
C406        C  0.72863630  0.46590944  0.29542572     0.97500
C407        C  0.72556262  0.54614226  0.28937786     1.04900
O408        O  0.69597216  0.50125440  0.24091333    -1.12300
O409        O  0.64737332  0.53512556  0.21461007    -0.74700
O410        O  0.64264105  0.53122035  0.26265538    -0.78200
O411        O  0.74235695  0.46692089  0.27125241    -0.78900
C412        C  0.63718227  0.54396208  0.23874831     0.96400
O413        O  0.65271344  0.46779189  0.27087470    -0.76800
O414        O  0.69957235  0.52723165  0.18302270    -0.82000
C415        C  0.72225572  0.45596905  0.19119825     0.99000
C416        C  0.72357904  0.54024801  0.18820174     1.04900
O417        O  0.74102114  0.46928278  0.20692535    -0.77700
C418        C  0.64085139  0.45695821  0.24826754     1.03200
Fe419      Fe  0.73014833  0.67834779  0.51026980     1.65800
Fe420      Fe  0.80421410  0.67365200  0.50725154     1.73200
Fe421      Fe  0.76998814  0.74164322  0.50802990     1.54400
O422        O  0.73697493  0.74635856  0.47653466    -0.81400
O423        O  0.82364674  0.69791009  0.53977758    -0.79700
O424        O  0.71262981  0.70412084  0.47833810    -0.83900
O425        O  0.71475447  0.70498481  0.54237718    -0.78800
O426        O  0.80107576  0.74251147  0.47469192    -0.80500
O427        O  0.79104764  0.64539242  0.54057591    -0.83300
C428        C  0.71926202  0.73061273  0.55160772     0.97500
C429        C  0.71641861  0.72955001  0.46815564     1.04900
O430        O  0.76818727  0.69806396  0.50843951    -1.12300
O431        O  0.78888550  0.64698267  0.47369021    -0.74700
O432        O  0.74047697  0.64953682  0.47769581    -0.78200
O433        O  0.73905332  0.74712143  0.54124585    -0.78900
C434        C  0.76333327  0.64083203  0.46475738     0.96400
O435        O  0.74285195  0.65099052  0.54323132    -0.76800
O436        O  0.82275299  0.69877900  0.47480328    -0.82000
C437        C  0.82102508  0.72365465  0.54968832     0.99000
C438        C  0.81977207  0.72444431  0.46478354     1.04900
O439        O  0.80260593  0.74208839  0.53979242    -0.77700
C440        C  0.76663437  0.64074256  0.55290055     1.03200
Fe441      Fe  0.67837268  0.50020983  0.73527955     1.65800
Fe442      Fe  0.67274997  0.49883472  0.80890263     1.73200
Fe443      Fe  0.74099264  0.49697230  0.77583651     1.54400
O444        O  0.74444971  0.46626072  0.74206544    -0.81400
O445        O  0.69690745  0.53180965  0.82706095    -0.79700
O446        O  0.70021311  0.46397408  0.72115531    -0.83900
O447        O  0.70870898  0.52744689  0.71742351    -0.78800
O448        O  0.74001675  0.46285233  0.80572849    -0.80500
O449        O  0.64473183  0.53172739  0.79354637    -0.83300
C450        C  0.73323672  0.53846282  0.72371156     0.97500
C451        C  0.72640902  0.45525432  0.72386539     1.04900
O452        O  0.69759737  0.49862973  0.77346748    -1.12300
O453        O  0.64683449  0.46471561  0.79433529    -0.74700
O454        O  0.64472533  0.47295104  0.74655339    -0.78200
O455        O  0.74785852  0.53085818  0.74607595    -0.78900
C456        C  0.63796940  0.45819762  0.76893419     0.96400
O457        O  0.65598817  0.53699374  0.74647744    -0.76800
O458        O  0.69741542  0.46710043  0.82920900    -0.82000
C459        C  0.72342883  0.53984149  0.82581949     0.99000
C460        C  0.72198488  0.45484523  0.82528907     1.04900
O461        O  0.74236506  0.52785668  0.80929643    -0.77700
C462        C  0.64391203  0.54599786  0.76966368     1.03200
Fe463      Fe  0.50378344  0.72860818  0.68671111     1.65800
Fe464      Fe  0.50089544  0.80266715  0.68073785     1.73200
Fe465      Fe  0.50068130  0.76954444  0.74918363     1.54400
O466        O  0.46818694  0.73784411  0.75366330    -0.81400
O467        O  0.53341497  0.82206182  0.70506028    -0.79700
O468        O  0.47181376  0.71152728  0.71270342    -0.83900
O469        O  0.53611760  0.71364739  0.71375864    -0.78800
O470        O  0.46826990  0.80138913  0.74910629    -0.80500
O471        O  0.53438676  0.78893579  0.65321754    -0.83300
C472        C  0.54379047  0.71793194  0.73997491     0.97500
C473        C  0.46049794  0.71662837  0.73742144     1.04900
O474        O  0.50171409  0.76700467  0.70570497    -1.12300
O475        O  0.46745397  0.78688905  0.65418174    -0.74700
O476        O  0.47104326  0.73850606  0.65771839    -0.78200
O477        O  0.53261540  0.73765722  0.75597883    -0.78900
C478        C  0.45822566  0.76132639  0.64866673     0.96400
O479        O  0.53669361  0.74083875  0.65922170    -0.76800
O480        O  0.46841395  0.82222746  0.70499370    -0.82000
C481        C  0.54353195  0.81918721  0.73077210     0.99000
C482        C  0.45849012  0.81985116  0.73074313     1.04900
O483        O  0.53341976  0.80106364  0.74936908    -0.77700
C484        C  0.54666700  0.76447085  0.64905692     1.03200
Fe485      Fe  0.50705039  0.26774718  0.68118023     1.65800
Fe486      Fe  0.50202272  0.19491934  0.68239227     1.73200
Fe487      Fe  0.50549054  0.23351567  0.74683949     1.54400
O488        O  0.53687227  0.26687990  0.74705068    -0.81400
O489        O  0.46678633  0.18210016  0.70688789    -0.79700
O490        O  0.54624966  0.27795306  0.70024767    -0.83900
O491        O  0.48553162  0.29228554  0.71160870    -0.78800
O492        O  0.53894110  0.20307884  0.74879955    -0.80500
O493        O  0.47148707  0.21149179  0.65216433    -0.83300
C494        C  0.47125851  0.28850499  0.73495660     0.97500
C495        C  0.55117053  0.28073046  0.72746489     1.04900
O496        O  0.50475247  0.23185561  0.70375113    -1.12300
O497        O  0.53825721  0.20387246  0.65666550    -0.74700
O498        O  0.52937931  0.25015431  0.64624345    -0.78200
O499        O  0.47227778  0.26475975  0.74935941    -0.78900
C500        C  0.54409480  0.22700637  0.64277906     0.96400
O501        O  0.46741298  0.25902263  0.66237997    -0.76800
O502        O  0.53138305  0.17444110  0.70988559    -0.82000
C503        C  0.46015687  0.18439055  0.73370513     0.99000
C504        C  0.54508223  0.18096630  0.73315418     1.04900
O505        O  0.47392936  0.20080182  0.75152322    -0.77700
C506        C  0.45777808  0.23577440  0.65081104     1.03200
Fe507      Fe  0.73175749  0.32318464  0.50306251     1.65800
Fe508      Fe  0.80448750  0.32663712  0.50898564     1.73200
Fe509      Fe  0.76981849  0.26006651  0.50569103     1.54400
O510        O  0.73894290  0.25569665  0.53912575    -0.81400
O511        O  0.82715864  0.30016244  0.48062406    -0.79700
O512        O  0.70914555  0.29119080  0.52455134    -0.83900
O513        O  0.72345047  0.30342065  0.46387482    -0.78800
O514        O  0.80320735  0.25794498  0.53714258    -0.80500
O515        O  0.79421544  0.35086722  0.47216154    -0.83300
C516        C  0.72109026  0.27609034  0.45989180     0.97500
C517        C  0.71422301  0.26843618  0.53943577     1.04900
O518        O  0.76892234  0.30303475  0.50614642    -1.12300
O519        O  0.78558612  0.35613995  0.53851530    -0.74700
O520        O  0.73878266  0.34271031  0.54251773    -0.78200
O521        O  0.73574962  0.25734844  0.47463680    -0.78900
C522        C  0.76118697  0.35594637  0.55205281     0.96400
O523        O  0.74740556  0.35908354  0.48078185    -0.76800
O524        O  0.81855702  0.30371066  0.54484177    -0.82000
C525        C  0.82173186  0.27695259  0.46646201     0.99000
C526        C  0.81827758  0.27675965  0.55121146     1.04900
O527        O  0.80016749  0.26028832  0.47202849    -0.77700
C528        C  0.77041579  0.36348733  0.46608999     1.03200
C529        C  0.64602153  0.25890075  0.57147970     0.30000
C530        C  0.61726047  0.26742495  0.57670461    -0.36300
C531        C  0.60075142  0.24868602  0.59402168     0.16000
C532        C  0.61158333  0.22314120  0.60586546     0.21800
C533        C  0.64076464  0.21431460  0.60030865    -0.34400
C534        C  0.65756100  0.23331987  0.58259808     0.15900
O535        O  0.66475674  0.27382322  0.55593352    -0.26400
C536        C  0.68907821  0.25803346  0.55659793     0.05700
C537        C  0.68613160  0.23233835  0.57293751    -0.31300
O538        O  0.59235010  0.21049906  0.62356902    -0.23200
C539        C  0.56918103  0.22836970  0.62258520    -0.03100
C540        C  0.57332813  0.25221387  0.60434345    -0.17600
H541        H  0.60847598  0.28770994  0.56819524     0.20400
H542        H  0.64985759  0.19453208  0.60960859     0.18800
H543        H  0.70230864  0.21548402  0.57677981     0.18700
H544        H  0.55890095  0.27066955  0.60080116     0.14600
C545        C  0.59174391  0.34433949  0.73150318     0.30000
C546        C  0.60101694  0.37098850  0.71993078    -0.36300
C547        C  0.60738227  0.39279336  0.74025127     0.16000
C548        C  0.60573665  0.38868888  0.77011179     0.21800
C549        C  0.59628617  0.36183307  0.78181536    -0.34400
C550        C  0.58920147  0.34000513  0.76130018     0.15900
O551        O  0.58141331  0.32246867  0.71610738    -0.26400
C552        C  0.57175117  0.30372386  0.73605378     0.05700
C553        C  0.57634426  0.31325779  0.76467989    -0.31300
O554        O  0.61460444  0.41195106  0.78486710    -0.23200
C555        C  0.62141463  0.43113235  0.76394818    -0.03100
C556        C  0.61696437  0.42035200  0.73589365    -0.17600
H557        H  0.60231821  0.37475622  0.69657440     0.20400
H558        H  0.59409968  0.35838365  0.80514462     0.18800
H559        H  0.56857187  0.30342488  0.78477377     0.18700
H560        H  0.62215615  0.43061947  0.71517533     0.14600
C561        C  0.60583959  0.61255516  0.77817691     0.30000
C562        C  0.58616482  0.63302931  0.79017376    -0.36300
C563        C  0.58217690  0.65904933  0.77405503     0.16000
C564        C  0.59663996  0.66434073  0.74805978     0.21800
C565        C  0.61652723  0.64429570  0.73647864    -0.34400
C566        C  0.62019774  0.61843804  0.75228704     0.15900
O567        O  0.61187846  0.58604255  0.78831862    -0.26400
C568        C  0.62997187  0.57500972  0.76825429     0.05700
C569        C  0.63585063  0.59432535  0.74554986    -0.31300
O570        O  0.58672905  0.68752143  0.73425295    -0.23200
C571        C  0.56590356  0.69782950  0.75163967    -0.03100
C572        C  0.56222218  0.68118534  0.77696372    -0.17600
H573        H  0.57384617  0.62844330  0.80986222     0.20400
H574        H  0.62712290  0.64786907  0.71560051     0.18800
H575        H  0.64970213  0.59099410  0.72662983     0.18700
H576        H  0.54498635  0.68298030  0.79309238     0.14600
C577        C  0.73997456  0.38163275  0.62065881     0.30000
C578        C  0.72070094  0.38529912  0.64409359    -0.36300
C579        C  0.73090072  0.40248128  0.66720564     0.16000
C580        C  0.75828412  0.41521801  0.66746688     0.21800
C581        C  0.77788766  0.41104809  0.64410745    -0.34400
C582        C  0.76755655  0.39391886  0.62075124     0.15900
O583        O  0.73419069  0.36746301  0.59635454    -0.26400
C584        C  0.75832490  0.37054177  0.58047070     0.05700
C585        C  0.77997268  0.38675048  0.59451945    -0.31300
O586        O  0.76157393  0.43363448  0.68949985    -0.23200
C587        C  0.73596430  0.43253102  0.70337123    -0.03100
C588        C  0.71627082  0.41324256  0.69059565    -0.17600
H589        H  0.69875422  0.37640475  0.64374890     0.20400
H590        H  0.79909896  0.42154278  0.64354297     0.18800
H591        H  0.80157249  0.39234172  0.58660353     0.18700
H592        H  0.69340999  0.41005540  0.69595585     0.14600
C593        C  0.74695529  0.61224406  0.62082538     0.30000
C594        C  0.72786921  0.60810750  0.64426371    -0.36300
C595        C  0.73844814  0.59109464  0.66729664     0.16000
C596        C  0.76591674  0.57854325  0.66744874     0.21800
C597        C  0.78549820  0.58333881  0.64403672    -0.34400
C598        C  0.77486309  0.60069580  0.62077728     0.15900
O599        O  0.74070127  0.62664164  0.59679379    -0.26400
C600        C  0.76485754  0.62477921  0.58080699     0.05700
C601        C  0.78710767  0.60898615  0.59462259    -0.31300
O602        O  0.76929311  0.55997261  0.68951661    -0.23200
C603        C  0.74370878  0.56116663  0.70355216    -0.03100
C604        C  0.72401339  0.58042219  0.69076084    -0.17600
H605        H  0.70579171  0.61670698  0.64405268     0.20400
H606        H  0.80693242  0.57329374  0.64341880     0.18800
H607        H  0.80892049  0.60440143  0.58665045     0.18700
H608        H  0.70114145  0.58353964  0.69612835     0.14600
C609        C  0.61545112  0.74454325  0.62334649     0.30000
C610        C  0.63881941  0.72526898  0.61984209    -0.36300
C611        C  0.66259530  0.73583611  0.60396092     0.16000
C612        C  0.66353860  0.76353595  0.59201935     0.21800
C613        C  0.64028028  0.78336221  0.59639425    -0.34400
C614        C  0.61621482  0.77267321  0.61245546     0.15900
O615        O  0.59067444  0.73822228  0.63629068    -0.26400
C616        C  0.57501353  0.76254756  0.63408795     0.05700
C617        C  0.58979605  0.78499447  0.61960419    -0.31300
O618        O  0.68591823  0.76679055  0.57388202    -0.23200
C619        C  0.69930597  0.74086273  0.57461116    -0.03100
C620        C  0.68590583  0.72111201  0.59336501    -0.17600
H621        H  0.63791445  0.70298865  0.62779035     0.20400
H622        H  0.64025459  0.80494151  0.58667872     0.18800
H623        H  0.58228083  0.80699196  0.61516753     0.18700
H624        H  0.69058685  0.69804074  0.59593468     0.14600
C625        C  0.77320588  0.39956336  0.39825974     0.30000
C626        C  0.78199458  0.40493853  0.36908567    -0.36300
C627        C  0.76285845  0.42232569  0.35213625     0.16000
C628        C  0.73716535  0.43334494  0.36350325     0.21800
C629        C  0.72864966  0.42828390  0.39230894    -0.34400
C630        C  0.74752754  0.41120986  0.40898662     0.15900
O631        O  0.78614271  0.38227480  0.41764366    -0.26400
C632        C  0.76832273  0.38324511  0.44079438     0.05700
C633        C  0.74417835  0.40107508  0.43653368    -0.31300
O634        O  0.72230657  0.44883808  0.34462167    -0.23200
C635        C  0.73830840  0.44819701  0.32044378    -0.03100
C636        C  0.76401078  0.43194379  0.32359640    -0.17600
H637        H  0.80190920  0.39580479  0.36013732     0.20400
H638        H  0.70833019  0.43677595  0.40101206     0.18800
H639        H  0.72576785  0.40455372  0.45102016     0.18700
H640        H  0.78110370  0.42833496  0.30763441     0.14600
C641        C  0.76691891  0.60457863  0.39680127     0.30000
C642        C  0.77933736  0.59005399  0.37256928    -0.36300
C643        C  0.76009427  0.58371630  0.34923248     0.16000
C644        C  0.73093140  0.59157207  0.34982743     0.21800
C645        C  0.71868042  0.60591597  0.37378696    -0.34400
C646        C  0.73758124  0.61164877  0.39704553     0.15900
O647        O  0.78040818  0.61292719  0.42112395    -0.26400
C648        C  0.75906196  0.62492099  0.43704705     0.05700
C649        C  0.73207544  0.62448294  0.42305983    -0.31300
O650        O  0.71610112  0.58145993  0.32743997    -0.23200
C651        C  0.73568053  0.56670283  0.31192265    -0.03100
C652        C  0.76366213  0.56749800  0.32425366    -0.17600
H653        H  0.80210588  0.58355104  0.37222946     0.20400
H654        H  0.69563675  0.61135078  0.37464765     0.18800
H655        H  0.71148291  0.63349710  0.43053170     0.18700
H656        H  0.78295454  0.55561525  0.31740533     0.14600
C657        C  0.65824384  0.73310101  0.41952040     0.30000
C658        C  0.63526526  0.72042184  0.40396468    -0.36300
C659        C  0.61283617  0.73923710  0.39543880     0.16000
C660        C  0.61277413  0.76877297  0.40142321     0.21800
C661        C  0.63615369  0.78166978  0.41698715    -0.34400
C662        C  0.65885067  0.76260692  0.42576142     0.15900
O663        O  0.67969111  0.71859976  0.43188314    -0.26400
C664        C  0.69480131  0.73878816  0.44621799     0.05700
C665        C  0.68306524  0.76680849  0.44308702    -0.31300
O666        O  0.58892439  0.78190175  0.39126823    -0.23200
C667        C  0.57380034  0.76020501  0.37887737    -0.03100
C668        C  0.58776048  0.73333303  0.38096089    -0.17600
H669        H  0.63449158  0.69718540  0.39959568     0.20400
H670        H  0.63631052  0.80467524  0.42244349     0.18800
H671        H  0.68971345  0.78664986  0.45411012     0.18700
H672        H  0.58059727  0.71238750  0.37258773     0.14600
C673        C  0.57617064  0.65885635  0.24371282     0.30000
C674        C  0.58569561  0.63900322  0.22200708    -0.36300
C675        C  0.59902280  0.61304931  0.23232007     0.16000
C676        C  0.60238690  0.60739619  0.26181450     0.21800
C677        C  0.59349058  0.62716042  0.28314367    -0.34400
C678        C  0.58054517  0.65274633  0.27296799     0.15900
O679        O  0.56094264  0.68332358  0.23985798    -0.26400
C680        C  0.55596998  0.69258446  0.26713711     0.05700
C681        C  0.56797365  0.67446628  0.28831263    -0.31300
O682        O  0.61487014  0.58220310  0.26716046    -0.23200
C683        C  0.62003809  0.57105893  0.24091270    -0.03100
C684        C  0.61076428  0.58929597  0.21813136    -0.17600
H685        H  0.58241088  0.64315707  0.19891698     0.20400
H686        H  0.59603105  0.62261384  0.30626743     0.18800
H687        H  0.56587663  0.67603729  0.31187203     0.18700
H688        H  0.61293167  0.58587236  0.19480480     0.14600
C689        C  0.40425591  0.39147263  0.77777752     0.30000
C690        C  0.41048937  0.36272732  0.78728186    -0.36300
C691        C  0.42789700  0.34569952  0.76832485     0.16000
C692        C  0.43818930  0.35654896  0.74209562     0.21800
C693        C  0.43223271  0.38496224  0.73282372    -0.34400
C694        C  0.41513271  0.40174743  0.75156830     0.15900
O695        O  0.38677125  0.41075420  0.79052989    -0.26400
C696        C  0.38681426  0.43342691  0.77206852     0.05700
C697        C  0.40428087  0.42893719  0.74769126    -0.31300
O698        O  0.45379043  0.33755256  0.72751179    -0.23200
C699        C  0.45388880  0.31385804  0.74427980    -0.03100
C700        C  0.43805796  0.31744962  0.77014666    -0.17600
H701        H  0.40194917  0.35411400  0.80761379     0.20400
H702        H  0.44008553  0.39328957  0.71208382     0.18800
H703        H  0.40706352  0.44300364  0.72882388     0.18700
H704        H  0.43492635  0.30187987  0.78770679     0.14600
C705        C  0.41021741  0.66034886  0.74027902     0.30000
C706        C  0.39362777  0.63845091  0.72701231    -0.36300
C707        C  0.38767826  0.61398669  0.74422401     0.16000
C708        C  0.39693586  0.61112272  0.77282856     0.21800
C709        C  0.41340537  0.63338472  0.78634797    -0.34400
C710        C  0.41962859  0.65803990  0.76891550     0.15900
O711        O  0.42138204  0.68297907  0.72665409    -0.26400
C712        C  0.43797077  0.69588169  0.74668599     0.05700
C713        C  0.43758100  0.68153899  0.77362390    -0.31300
O714        O  0.38899306  0.58579474  0.78444385    -0.23200
C715        C  0.37475959  0.57247096  0.76271439    -0.03100
C716        C  0.37340711  0.58907759  0.73729511    -0.17600
H717        H  0.38690968  0.63983519  0.70432391     0.20400
H718        H  0.42158163  0.63122742  0.80848243     0.18800
H719        H  0.45115767  0.68577475  0.79257575     0.18700
H720        H  0.36294279  0.58371789  0.71671426     0.14600
C721        C  0.25919407  0.56235403  0.64684617     0.30000
C722        C  0.26437015  0.56511971  0.61689388    -0.36300
C723        C  0.24794494  0.58628637  0.60233580     0.16000
C724        C  0.22755924  0.60373789  0.61610658     0.21800
C725        C  0.22210527  0.60072893  0.64640223    -0.34400
C726        C  0.23879446  0.57933752  0.66118542     0.15900
O727        O  0.27333721  0.54466658  0.66440869    -0.26400
C728        C  0.26208354  0.54990694  0.69064203     0.05700
C729        C  0.24027271  0.57128935  0.69016492    -0.31300
O730        O  0.21678301  0.62393406  0.59827350    -0.23200
C731        C  0.23059055  0.61903871  0.57299330    -0.03100
C732        C  0.25008332  0.59586270  0.57439585    -0.17600
H733        H  0.28086551  0.55223022  0.60584727     0.20400
H734        H  0.20672770  0.61466380  0.65776123     0.18800
H735        H  0.22783361  0.57988338  0.70836400     0.18700
H736        H  0.26522308  0.58850997  0.55774188     0.14600
C737        C  0.39267567  0.77499589  0.40464299     0.30000
C738        C  0.36288837  0.78210756  0.40870416    -0.36300
C739        C  0.34736857  0.76443627  0.42865956     0.16000
C740        C  0.36051749  0.74149954  0.44326142     0.21800
C741        C  0.38996061  0.73448056  0.43928142    -0.34400
C742        C  0.40529130  0.75202407  0.41964166     0.15900
O743        O  0.41107619  0.78708164  0.38581736    -0.26400
C744        C  0.43557167  0.77150671  0.38908970     0.05700
C745        C  0.43312001  0.74955421  0.40990363    -0.31300
O746        O  0.34250863  0.72755678  0.46060157    -0.23200
C747        C  0.31721138  0.74150783  0.45751035    -0.03100
C748        C  0.31872700  0.76478643  0.43780377    -0.17600
H749        H  0.35248608  0.79977123  0.39684140     0.20400
H750        H  0.40012855  0.71623904  0.45047289     0.18800
H751        H  0.44903630  0.73297494  0.41568239     0.18700
H752        H  0.30148152  0.77967248  0.43132748     0.14600
C753        C  0.38950575  0.76587653  0.61406664     0.30000
C754        C  0.36511068  0.77889590  0.60034337    -0.36300
C755        C  0.34143943  0.76015249  0.59412405     0.16000
C756        C  0.34182470  0.73085999  0.60138527     0.21800
C757        C  0.36595519  0.71799588  0.61507330    -0.34400
C758        C  0.38960480  0.73645309  0.62065676     0.15900
O759        O  0.41417954  0.77889904  0.62193671    -0.26400
C760        C  0.43023483  0.75724153  0.63317280     0.05700
C761        C  0.41596705  0.73043186  0.63273677    -0.31300
O762        O  0.31926095  0.71654189  0.59093480    -0.23200
C763        C  0.30394058  0.73661158  0.57653908    -0.03100
C764        C  0.31647450  0.76438401  0.57802687    -0.17600
H765        H  0.36495544  0.80173289  0.59416205     0.20400
H766        H  0.36670443  0.69484747  0.61994528     0.18800
H767        H  0.42349385  0.70965916  0.64128582     0.18700
H768        H  0.30995114  0.78392527  0.56634550     0.14600
C769        C  0.27408127  0.40559437  0.66447308     0.30000
C770        C  0.28642180  0.38967876  0.64152010    -0.36300
C771        C  0.26845894  0.38518918  0.61720169     0.16000
C772        C  0.23990081  0.39486349  0.61561727     0.21800
C773        C  0.22734130  0.41062810  0.63887662    -0.34400
C774        C  0.24561832  0.41567444  0.66318939     0.15900
O775        O  0.28846990  0.41556848  0.68727077    -0.26400
C776        C  0.26915303  0.43227696  0.70108046     0.05700
C777        C  0.24190206  0.43291162  0.68731607    -0.31300
O778        O  0.22722826  0.38777643  0.59053127    -0.23200
C779        C  0.24830857  0.37393671  0.57588416    -0.03100
C780        C  0.27433544  0.37182129  0.59149488    -0.17600
H781        H  0.30897770  0.38244736  0.64202947     0.20400
H782        H  0.20528297  0.41917328  0.63770371     0.18800
H783        H  0.22327014  0.44656326  0.69250635     0.18700
H784        H  0.29440387  0.36090897  0.58522571     0.14600
C785        C  0.38828936  0.25473829  0.62486046     0.30000
C786        C  0.36416446  0.27323641  0.62123219    -0.36300
C787        C  0.34216331  0.26317954  0.60249186     0.16000
C788        C  0.34356871  0.23662304  0.58825683     0.21800
C789        C  0.36763001  0.21778250  0.59232862    -0.34400
C790        C  0.38984925  0.22795397  0.61109006     0.15900
O791        O  0.41194708  0.26079967  0.64008199    -0.26400
C792        C  0.42907430  0.23762159  0.63628323     0.05700
C793        C  0.41643747  0.21630038  0.61854876    -0.31300
O794        O  0.32222767  0.23343291  0.56892250    -0.23200
C795        C  0.30704749  0.25822696  0.57103303    -0.03100
C796        C  0.31844297  0.27737940  0.59165872    -0.17600
H797        H  0.36322579  0.29461023  0.63132044     0.20400
H798        H  0.36952389  0.19729565  0.58067211     0.18800
H799        H  0.42565428  0.19558360  0.61181688     0.18700
H800        H  0.31185955  0.29971750  0.59589529     0.14600
C801        C  0.39935723  0.61252653  0.24257159     0.30000
C802        C  0.41095220  0.63804129  0.22980499    -0.36300
C803        C  0.41676434  0.66127915  0.24915075     0.16000
C804        C  0.41109266  0.65944992  0.27877410     0.21800
C805        C  0.39956742  0.63419672  0.29138741    -0.34400
C806        C  0.39443219  0.61101284  0.27231273     0.15900
O807        O  0.39173046  0.58814313  0.22897343    -0.26400
C808        C  0.38239487  0.57089893  0.25059275     0.05700
C809        C  0.38387163  0.58405623  0.27792354    -0.31300
O810        O  0.42089585  0.68203259  0.29342489    -0.23200
C811        C  0.43325378  0.69879902  0.27321053    -0.03100
C812        C  0.43106369  0.68721678  0.24506593    -0.17600
H813        H  0.41578022  0.63941427  0.20666408     0.20400
H814        H  0.39588846  0.63237099  0.31471982     0.18800
H815        H  0.37654803  0.57555584  0.29879647     0.18700
H816        H  0.44129595  0.69508375  0.22521334     0.14600
C817        C  0.27460609  0.58983956  0.35025240     0.30000
C818        C  0.28748112  0.60560422  0.37302861    -0.36300
C819        C  0.26913497  0.61277810  0.39631784     0.16000
C820        C  0.23991493  0.60528171  0.39726142     0.21800
C821        C  0.22691276  0.58942416  0.37425015    -0.34400
C822        C  0.24542094  0.58209873  0.35074644     0.15900
O823        O  0.28871804  0.57853120  0.32801310    -0.26400
C824        C  0.26850020  0.56345343  0.31359103     0.05700
C825        C  0.24093808  0.56500579  0.32654623    -0.31300
O826        O  0.22697243  0.61473895  0.42136280    -0.23200
C827        C  0.24840553  0.62821174  0.43588188    -0.03100
C828        C  0.27504588  0.62749397  0.42130007    -0.17600
H829        H  0.31049460  0.61121245  0.37294672     0.20400
H830        H  0.20417669  0.58285027  0.37485818     0.18800
H831        H  0.22140667  0.55294355  0.32075881     0.18700
H832        H  0.29566325  0.63717236  0.42782521     0.14600
C833        C  0.24178264  0.41805410  0.34545568     0.30000
C834        C  0.22235743  0.41375378  0.36907276    -0.36300
C835        C  0.23260015  0.39574934  0.39199016     0.16000
C836        C  0.26000566  0.38307153  0.39146722     0.21800
C837        C  0.27896336  0.38678705  0.36780168    -0.34400
C838        C  0.26878352  0.40453649  0.34509248     0.15900
O839        O  0.23878446  0.43704430  0.32371741    -0.26400
C840        C  0.26414419  0.43528502  0.30934911     0.05700
C841        C  0.28333826  0.41515612  0.32160709    -0.31300
O842        O  0.26599757  0.36828536  0.41537989    -0.23200
C843        C  0.24214811  0.37108530  0.43171669    -0.03100
C844        C  0.22040850  0.38786197  0.41826817    -0.17600
H845        H  0.20136674  0.42466186  0.37011752     0.20400
H846        H  0.30071322  0.37739536  0.36765246     0.18800
H847        H  0.30604144  0.41139968  0.31593999     0.18700
H848        H  0.19898331  0.39346290  0.42663323     0.14600
C849        C  0.61247728  0.23497152  0.40352583     0.30000
C850        C  0.63734969  0.22276248  0.41712625    -0.36300
C851        C  0.66037713  0.24229095  0.42335012     0.16000
C852        C  0.65890810  0.27162850  0.41643331     0.21800
C853        C  0.63420357  0.28375176  0.40307408    -0.34400
C854        C  0.61126190  0.26444971  0.39727966     0.15900
O855        O  0.58857304  0.22097596  0.39493168    -0.26400
C856        C  0.57186691  0.24205063  0.38354431     0.05700
C857        C  0.58494206  0.26945703  0.38467611    -0.31300
O858        O  0.68147658  0.28648899  0.42617792    -0.23200
C859        C  0.69792784  0.26666294  0.43966252    -0.03100
C860        C  0.68602576  0.23860454  0.43843572    -0.17600
H861        H  0.63850561  0.19982594  0.42281146     0.20400
H862        H  0.63268953  0.30685824  0.39817905     0.18800
H863        H  0.57679751  0.28996238  0.37604284     0.18700
H864        H  0.69370077  0.21904440  0.44936078     0.14600
C865        C  0.34171117  0.23026885  0.42778267     0.30000
C866        C  0.36687233  0.21243265  0.42566129    -0.36300
C867        C  0.38913207  0.22254356  0.40680701     0.16000
C868        C  0.38657817  0.24844715  0.39152278     0.21800
C869        C  0.36142111  0.26566927  0.39303872    -0.34400
C870        C  0.33932172  0.25553386  0.41144899     0.15900
O871        O  0.32019944  0.22776788  0.44706681    -0.26400
C872        C  0.30389811  0.25160154  0.44255898     0.05700
C873        C  0.31470097  0.26928152  0.42038288    -0.31300
O874        O  0.41008141  0.25489246  0.37641675    -0.23200
C875        C  0.42820947  0.23278540  0.38147410    -0.03100
C876        C  0.41638086  0.21171303  0.40016789    -0.17600
H877        H  0.36946390  0.19285542  0.43872156     0.20400
H878        H  0.35969094  0.28627931  0.38150308     0.18800
H879        H  0.30751829  0.29104760  0.41439638     0.18700
H880        H  0.42637368  0.19164821  0.40778675     0.14600
C881        C  0.58962492  0.34208362  0.27761921     0.30000
C882        C  0.60308833  0.36599988  0.29094966    -0.36300
C883        C  0.61079978  0.38897684  0.27244157     0.16000
C884        C  0.60615796  0.38851904  0.24261745     0.21800
C885        C  0.59291049  0.36419016  0.22908537    -0.34400
C886        C  0.58477164  0.34108142  0.24781193     0.15900
O887        O  0.57737519  0.32030369  0.29164271    -0.26400
C888        C  0.56447364  0.30470331  0.27083355     0.05700
C889        C  0.56860016  0.31630912  0.24289334    -0.31300
O890        O  0.61512954  0.41288200  0.22977085    -0.23200
C891        C  0.62534673  0.42897607  0.25187850    -0.03100
C892        C  0.62308438  0.41509658  0.27882573    -0.17600
H893        H  0.60619692  0.36713611  0.31441260     0.20400
H894        H  0.58840660  0.36372606  0.20583493     0.18800
H895        H  0.55850116  0.30941909  0.22260736     0.18700
H896        H  0.63018332  0.42287949  0.30004869     0.14600
C897        C  0.39872713  0.38630417  0.23645893     0.30000
C898        C  0.41314971  0.36244030  0.22320894    -0.36300
C899        C  0.41888054  0.33821019  0.24154360     0.16000
C900        C  0.41045306  0.33768713  0.27055502     0.21800
C901        C  0.39606015  0.36113592  0.28353638    -0.34400
C902        C  0.39105835  0.38522092  0.26561791     0.15900
O903        O  0.39146997  0.41161834  0.22418406    -0.26400
C904        C  0.37958558  0.42668748  0.24620496     0.05700
C905        C  0.37902172  0.41120761  0.27233231    -0.31300
O906        O  0.42099271  0.31527781  0.28492182    -0.23200
C907        C  0.43660431  0.30080408  0.26526320    -0.03100
C908        C  0.43583415  0.31375058  0.23756956    -0.17600
H909        H  0.42038772  0.36316433  0.20068020     0.20400
H910        H  0.39049189  0.36118554  0.30656273     0.18800
H911        H  0.37004158  0.41783273  0.29322683     0.18700
H912        H  0.44878143  0.30815233  0.21856618     0.14600
C913        C  0.63431513  0.89976388  0.77518835     0.30000
C914        C  0.61378558  0.87969263  0.78586899    -0.36300
C915        C  0.59834703  0.86383291  0.76473691     0.16000
C916        C  0.60269678  0.86758676  0.73508250     0.21800
C917        C  0.62377119  0.88721295  0.72437836    -0.34400
C918        C  0.63932500  0.90304380  0.74557800     0.15900
O919        O  0.64966236  0.91814237  0.79109712    -0.26400
C920        C  0.66496463  0.93328552  0.77155168     0.05700
C921        C  0.65965117  0.92472208  0.74281375    -0.31300
O922        O  0.58426552  0.85207798  0.71925139    -0.23200
C923        C  0.56817116  0.83800919  0.73904546    -0.03100
C924        C  0.57610803  0.84428668  0.76770767    -0.17600
H925        H  0.60950597  0.87728050  0.80903871     0.20400
H926        H  0.62713027  0.89057092  0.70117367     0.18800
H927        H  0.66852030  0.93392354  0.72287624     0.18700
H928        H  0.56609577  0.83656918  0.78773354     0.14600
C929        C  0.60338477  0.13174243  0.73721091     0.30000
C930        C  0.62328331  0.11110947  0.72634956    -0.36300
C931        C  0.64057493  0.09684696  0.74727570     0.16000
C932        C  0.63820316  0.10234495  0.77688073     0.21800
C933        C  0.61891971  0.12364075  0.78767018    -0.34400
C934        C  0.60176666  0.13807150  0.76670018     0.15900
O935        O  0.58375696  0.14605831  0.72173711    -0.26400
C936        C  0.56963126  0.16208119  0.74145402     0.05700
C937        C  0.58004319  0.15827446  0.76980821    -0.31300
O938        O  0.65432042  0.08445762  0.79273447    -0.23200
C939        C  0.66751274  0.06761094  0.77302402    -0.03100
C940        C  0.66006897  0.07451398  0.74434264    -0.17600
H941        H  0.62445170  0.10580778  0.70330150     0.20400
H942        H  0.61668226  0.12787990  0.81085867     0.18800
H943        H  0.57199386  0.16803815  0.78980768     0.18700
H944        H  0.66665036  0.06350263  0.72445475     0.14600
C945        C  0.76774158  0.37150613  0.10432924     0.30000
C946        C  0.77818472  0.39319051  0.12336749    -0.36300
C947        C  0.75744815  0.40576602  0.14209469     0.16000
C948        C  0.72833631  0.39778342  0.14180526     0.21800
C949        C  0.71795897  0.37577484  0.12302986    -0.34400
C950        C  0.73879003  0.36296348  0.10448435     0.15900
O951        O  0.78325921  0.35749064  0.08455803    -0.26400
C952        C  0.76417436  0.33945867  0.07197150     0.05700
C953        C  0.73610265  0.34179599  0.08355671    -0.31300
O954        O  0.71239299  0.41378576  0.15969410    -0.23200
C955        C  0.73157792  0.43199474  0.17191081    -0.03100
C956        C  0.76002122  0.42787734  0.16193275    -0.17600
H957        H  0.80083588  0.40009317  0.12324852     0.20400
H958        H  0.69513943  0.36946864  0.12255022     0.18800
H959        H  0.71657873  0.33002707  0.07716490     0.18700
H960        H  0.77939225  0.44037797  0.16732600     0.14600
C961        C  0.75443396  0.39954388  0.86741609     0.30000
C962        C  0.77741835  0.38318430  0.87944685    -0.36300
C963        C  0.76964235  0.36332938  0.90147331     0.16000
C964        C  0.74118389  0.35946086  0.91085306     0.21800
C965        C  0.71818705  0.37577281  0.89875753    -0.34400
C966        C  0.72601785  0.39592978  0.87700260     0.15900
O967        O  0.75688172  0.42034017  0.84754233    -0.26400
C968        C  0.72969008  0.43029882  0.84455586     0.05700
C969        C  0.70961256  0.41592667  0.86234698    -0.31300
O970        O  0.73920600  0.34100099  0.93297800    -0.23200
C971        C  0.76680075  0.33317987  0.93789531    -0.03100
C972        C  0.78661299  0.34628928  0.91889063    -0.17600
H973        H  0.79990881  0.38636631  0.87275978     0.20400
H974        H  0.69589850  0.37360497  0.90644422     0.18800
H975        H  0.68636988  0.41998179  0.86447695     0.18700
H976        H  0.81024251  0.34450168  0.91883197     0.14600
C977        C  0.77039711  0.14640821  0.93398354     0.30000
C978        C  0.78140809  0.11903384  0.92634308    -0.36300
C979        C  0.76207539  0.10050643  0.91183961     0.16000
C980        C  0.73372246  0.10821848  0.90489448     0.21800
C981        C  0.72255351  0.13595203  0.91268362    -0.34400
C982        C  0.74206430  0.15469230  0.92757678     0.15900
O983        O  0.78479910  0.16625614  0.94870070    -0.26400
C984        C  0.76580818  0.18794228  0.95214070     0.05700
C985        C  0.73865262  0.18216313  0.93933037    -0.31300
O986        O  0.72017373  0.08744312  0.88988273    -0.23200
C987        C  0.74029565  0.06637512  0.88753386    -0.03100
C988        C  0.76661366  0.07343523  0.90094476    -0.17600
H989        H  0.80362175  0.11257245  0.93149682     0.20400
H990        H  0.70036462  0.14243042  0.90750301     0.18800
H991        H  0.71909040  0.19548922  0.93979835     0.18700
H992        H  0.78676017  0.06096634  0.90129310     0.14600
C993        C  0.87155521  0.72860522  0.60719770     0.30000
C994        C  0.89210582  0.71818939  0.62760337    -0.36300
C995        C  0.90674024  0.73954100  0.64408085     0.16000
C996        C  0.90163830  0.76905830  0.64043454     0.21800
C997        C  0.88084484  0.77943099  0.62034274    -0.34400
C998        C  0.86605059  0.75810955  0.60409362     0.15900
O999        O  0.85625777  0.71264764  0.58869515    -0.26400
C1000       C  0.84056356  0.73216463  0.57376384     0.05700
C1001       C  0.84563388  0.76080445  0.58251143    -0.31300
O1002       O  0.91893381  0.78527313  0.65675088    -0.23200
C1003       C  0.93515470  0.76599122  0.67137131    -0.03100
C1004       C  0.92846165  0.73712727  0.66449982    -0.17600
H1005       H  0.89674322  0.69511761  0.63005736     0.20400
H1006       H  0.87689696  0.80254969  0.61720337     0.18800
H1007       H  0.83632109  0.78069259  0.57364323     0.18700
H1008       H  0.93894060  0.71740930  0.67238602     0.14600
C1009       C  0.09922831  0.76963937  0.63521776     0.30000
C1010       C  0.12005098  0.78087046  0.61569889    -0.36300
C1011       C  0.13446683  0.76035297  0.59817107     0.16000
C1012       C  0.12836251  0.73084363  0.59938870     0.21800
C1013       C  0.10777393  0.71952908  0.61923436    -0.34400
C1014       C  0.09373575  0.74004440  0.63721098     0.15900
O1015       O  0.08264902  0.78510635  0.65287597    -0.26400
C1016       C  0.06664714  0.76524964  0.66684536     0.05700
C1017       C  0.07266170  0.73672779  0.65816595    -0.31300
O1018       O  0.14383886  0.71572074  0.58038469    -0.23200
C1019       C  0.16036974  0.73573345  0.56715987    -0.03100
C1020       C  0.15558039  0.76390494  0.57741196    -0.17600
H1021       H  0.12456280  0.80404091  0.61418246     0.20400
H1022       H  0.10297470  0.69640057  0.62047245     0.18800
H1023       H  0.06219747  0.71674404  0.66531366     0.18700
H1024       H  0.16582470  0.78401753  0.57030608     0.14600
C1025       C  0.84485770  0.90953905  0.77437599     0.30000
C1026       C  0.86881331  0.89587873  0.78741519    -0.36300
C1027       C  0.89107026  0.88724302  0.76854953     0.16000
C1028       C  0.88994381  0.89110186  0.73862860     0.21800
C1029       C  0.86544357  0.90447573  0.72535344    -0.34400
C1030       C  0.84305022  0.91367607  0.74448755     0.15900
O1031       O  0.82390115  0.92270796  0.78871900    -0.26400
C1032       C  0.80799634  0.93555870  0.76809777     0.05700
C1033       C  0.81854410  0.93045778  0.73991197    -0.31300
O1034       O  0.91411297  0.88180216  0.72557396    -0.23200
C1035       C  0.93066449  0.87224341  0.74771534    -0.03100
C1036       C  0.91727664  0.87516157  0.77478681    -0.17600
H1037       H  0.87063081  0.89348459  0.81092378     0.20400
H1038       H  0.86446262  0.90850527  0.70203238     0.18800
H1039       H  0.81119169  0.94020102  0.71959966     0.18700
H1040       H  0.92559008  0.86893001  0.79610604     0.14600
C1041       C  0.40079104  0.13708456  0.74111807     0.30000
C1042       C  0.37873187  0.11850700  0.73073675    -0.36300
C1043       C  0.36598875  0.09996733  0.75148301     0.16000
C1044       C  0.37457924  0.09955419  0.78044332     0.21800
C1045       C  0.39635230  0.11853363  0.79097456    -0.34400
C1046       C  0.40893819  0.13732916  0.77021677     0.15900
O1047       O  0.41700946  0.15447523  0.72497283    -0.26400
C1048       C  0.43563197  0.16637832  0.74389057     0.05700
C1049       C  0.43149648  0.15679150  0.77251387    -0.31300
O1050       O  0.36055639  0.07955682  0.79572743    -0.23200
C1051       C  0.34251978  0.06729446  0.77638004    -0.03100
C1052       C  0.34487555  0.07916787  0.74849450    -0.17600
H1053       H  0.37244949  0.11805030  0.70789517     0.20400
H1054       H  0.40340908  0.11820906  0.81359272     0.18800
H1055       H  0.44443674  0.16188567  0.79169701     0.18700
H1056       H  0.33315606  0.07299654  0.72885236     0.14600
C1057       C  0.36772269  0.90003738  0.77734508     0.30000
C1058       C  0.38581417  0.87714576  0.78695200    -0.36300
C1059       C  0.40346477  0.86407255  0.76556467     0.16000
C1060       C  0.40344192  0.87303034  0.73671815     0.21800
C1061       C  0.38509303  0.89572232  0.72702935    -0.34400
C1062       C  0.36725318  0.90865281  0.74839244     0.15900
O1063       O  0.35061585  0.91622883  0.79394257    -0.26400
C1064       C  0.33869701  0.93527057  0.77537564     0.05700
C1065       C  0.34811711  0.93149899  0.74666553    -0.31300
O1066       O  0.42251171  0.85850757  0.72068660    -0.23200
C1067       C  0.43478783  0.83985265  0.73944958    -0.03100
C1068       C  0.42372772  0.84229369  0.76769845    -0.17600
H1069       H  0.38647531  0.87036576  0.80964396     0.20400
H1070       H  0.38506702  0.90307906  0.70450884     0.18800
H1071       H  0.34268011  0.94452089  0.72762628     0.18700
H1072       H  0.43015612  0.83024217  0.78706716     0.14600
C1073       C  0.11243444  0.90251921  0.73239121     0.30000
C1074       C  0.14141049  0.90886411  0.72335579    -0.36300
C1075       C  0.15838246  0.92593321  0.74284503     0.16000
C1076       C  0.14719885  0.93580004  0.76906190     0.21800
C1077       C  0.11858021  0.92992788  0.77773748    -0.34400
C1078       C  0.10191949  0.91316942  0.75855901     0.15900
O1079       O  0.09324187  0.88494582  0.71941532    -0.26400
C1080       C  0.07039094  0.88476725  0.73772000     0.05700
C1081       C  0.07474321  0.90217568  0.76216351    -0.31300
O1082       O  0.16613417  0.95074887  0.78443783    -0.23200
C1083       C  0.19024886  0.95096386  0.76830403    -0.03100
C1084       C  0.18689236  0.93585008  0.74189724    -0.17600
H1085       H  0.15028938  0.90048274  0.70309013     0.20400
H1086       H  0.11005776  0.93742175  0.79851493     0.18800
H1087       H  0.06064149  0.90470756  0.78102341     0.18700
H1088       H  0.20278505  0.93294388  0.72460726     0.14600
C1089       C  0.75784523  0.59342853  0.86839575     0.30000
C1090       C  0.78110872  0.60736623  0.88270086    -0.36300
C1091       C  0.77331414  0.62948465  0.90242325     0.16000
C1092       C  0.74467588  0.63782925  0.90731622     0.21800
C1093       C  0.72145054  0.62409378  0.89280067    -0.34400
C1094       C  0.72920549  0.60155645  0.87358304     0.15900
O1095       O  0.75989803  0.57089704  0.85050373    -0.26400
C1096       C  0.73217810  0.56442814  0.84443471     0.05700
C1097       C  0.71219780  0.58278572  0.85816350    -0.31300
O1098       O  0.74229683  0.65761361  0.92814687    -0.23200
C1099       C  0.76973656  0.66168084  0.93691239    -0.03100
C1100       C  0.78994931  0.64491590  0.92157644    -0.17600
H1101       H  0.80359943  0.60062579  0.87960195     0.20400
H1102       H  0.69885765  0.62972773  0.89712061     0.18800
H1103       H  0.68853032  0.58204012  0.85728224     0.18700
H1104       H  0.81336549  0.64346880  0.92492563     0.14600
C1105       C  0.76868226  0.62906205  0.10542646     0.30000
C1106       C  0.77897126  0.61065946  0.12776198    -0.36300
C1107       C  0.75773607  0.59406577  0.14231376     0.16000
C1108       C  0.72842017  0.59524087  0.13509801     0.21800
C1109       C  0.71804832  0.61401373  0.11303891    -0.34400
C1110       C  0.73928826  0.63087779  0.09867376     0.15900
O1111       O  0.78492333  0.64560156  0.08837387    -0.26400
C1112       C  0.76576485  0.65853267  0.07062719     0.05700
C1113       C  0.73694446  0.65032531  0.07607753    -0.31300
O1114       O  0.71262839  0.57667611  0.15046172    -0.23200
C1115       C  0.73201466  0.56371509  0.16797431    -0.03100
C1116       C  0.76042532  0.57379812  0.16403729    -0.17600
H1117       H  0.80200134  0.60906287  0.13309885     0.20400
H1118       H  0.69511371  0.61503173  0.10717717     0.18800
H1119       H  0.71735537  0.65697031  0.06450376     0.18700
H1120       H  0.78021910  0.56653800  0.17487179     0.14600
C1121       C  0.90230027  0.72788245  0.89837129     0.30000
C1122       C  0.90765780  0.71945641  0.86910870    -0.36300
C1123       C  0.92552862  0.73840267  0.85252417     0.16000
C1124       C  0.93710455  0.76365274  0.86424848     0.21800
C1125       C  0.93195449  0.77189796  0.89320833    -0.34400
C1126       C  0.91429816  0.75317018  0.90956354     0.15900
O1127       O  0.88464479  0.71492702  0.91737504    -0.26400
C1128       C  0.88557199  0.73231677  0.94082847     0.05700
C1129       C  0.90382217  0.75626405  0.93710431    -0.31300
O1130       O  0.95304907  0.77833824  0.84550829    -0.23200
C1131       C  0.95208660  0.76260229  0.82111056    -0.03100
C1132       C  0.93516374  0.73734905  0.82401206    -0.17600
H1133       H  0.89815342  0.69989660  0.85981234     0.20400
H1134       H  0.94078583  0.79189864  0.90225088     0.18800
H1135       H  0.90737527  0.77437030  0.95192366     0.18700
H1136       H  0.93104053  0.72059529  0.80783295     0.14600
C1137       C  0.74290720  0.83688397  0.92225197     0.30000
C1138       C  0.72219658  0.85930127  0.91752618    -0.36300
C1139       C  0.73179352  0.88328465  0.90069403     0.16000
C1140       C  0.75974926  0.88471696  0.88940593     0.21800
C1141       C  0.77999987  0.86222221  0.89346720    -0.34400
C1142       C  0.77052617  0.83855460  0.91020003     0.15900
O1143       O  0.74028798  0.81436566  0.94028498    -0.26400
C1144       C  0.76657545  0.80165207  0.93951367     0.05700
C1145       C  0.78600878  0.81566305  0.92086384    -0.31300
O1146       O  0.76501377  0.90937532  0.87579170    -0.23200
C1147       C  0.74019326  0.92430014  0.87799790    -0.03100
C1148       C  0.71845039  0.90911663  0.89311907    -0.17600
H1149       H  0.70067494  0.85871740  0.92736359     0.20400
H1150       H  0.80213639  0.86368825  0.88517986     0.18800
H1151       H  0.80908638  0.81123861  0.91780333     0.18700
H1152       H  0.69637299  0.91613851  0.89799709     0.14600
C1153       C  0.10491205  0.77295385  0.37262428     0.30000
C1154       C  0.12316069  0.78340818  0.39501993    -0.36300
C1155       C  0.14257692  0.76303186  0.40726447     0.16000
C1156       C  0.14380060  0.73431248  0.39813675     0.21800
C1157       C  0.12606755  0.72405911  0.37523963    -0.34400
C1158       C  0.10665935  0.74443261  0.36299799     0.15900
O1159       O  0.08380938  0.78767775  0.35960269    -0.26400
C1160       C  0.07195346  0.76843542  0.34125713     0.05700
C1161       C  0.08540324  0.74117175  0.34227315    -0.31300
O1162       O  0.16114244  0.71825225  0.41467099    -0.23200
C1163       C  0.17147893  0.73694577  0.43443757    -0.03100
C1164       C  0.16094030  0.76523858  0.43071568    -0.17600
H1165       H  0.12151098  0.80556716  0.40311519     0.20400
H1166       H  0.12647508  0.70144623  0.36833090     0.18800
H1167       H  0.07969508  0.72160978  0.33025978     0.18700
H1168       H  0.16456664  0.78407072  0.44456682     0.14600
C1169       C  0.90362684  0.76925031  0.37624317     0.30000
C1170       C  0.88290329  0.78002322  0.39624038    -0.36300
C1171       C  0.86671543  0.75895683  0.41162910     0.16000
C1172       C  0.87092485  0.72934722  0.40778617     0.21800
C1173       C  0.89136268  0.71859210  0.38750911    -0.34400
C1174       C  0.90735299  0.73964722  0.37192083     0.15900
O1175       O  0.92179396  0.78503066  0.36035926    -0.26400
C1176       C  0.93723461  0.76536350  0.34540294     0.05700
C1177       C  0.92909222  0.73671056  0.35161134    -0.31300
O1178       O  0.85463197  0.71351688  0.42554310    -0.23200
C1179       C  0.83945144  0.73315131  0.44076338    -0.03100
C1180       C  0.84595933  0.76184241  0.43294224    -0.17600
H1181       H  0.87994811  0.80320648  0.39987367     0.20400
H1182       H  0.89489420  0.69540445  0.38446880     0.18800
H1183       H  0.93838213  0.71670921  0.34305858     0.18700
H1184       H  0.83750081  0.78182077  0.44236878     0.14600
C1185       C  0.88376334  0.75402399  0.12137874     0.30000
C1186       C  0.88839922  0.77330913  0.14462984    -0.36300
C1187       C  0.90603110  0.76295202  0.16740717     0.16000
C1188       C  0.91841165  0.73542975  0.16754715     0.21800
C1189       C  0.91318710  0.71576725  0.14438825    -0.34400
C1190       C  0.89550170  0.72622956  0.12135673     0.15900
O1191       O  0.86934101  0.76011096  0.09722847    -0.26400
C1192       C  0.87159653  0.73595939  0.08125859     0.05700
C1193       C  0.88751813  0.71394853  0.09519994    -0.31300
O1194       O  0.93746561  0.73204282  0.18918116    -0.23200
C1195       C  0.93698286  0.75770873  0.20297547    -0.03100
C1196       C  0.91760514  0.77752432  0.19044576    -0.17600
H1197       H  0.87992817  0.79540786  0.14433702     0.20400
H1198       H  0.92335126  0.69441519  0.14367068     0.18800
H1199       H  0.89269935  0.69233354  0.08712828     0.18700
H1200       H  0.91485390  0.80043442  0.19571728     0.14600
C1201       C  0.90635007  0.26003331  0.37013569     0.30000
C1202       C  0.89309770  0.28279315  0.38580120    -0.36300
C1203       C  0.87261091  0.27427087  0.40699337     0.16000
C1204       C  0.86515705  0.24543970  0.41200994     0.21800
C1205       C  0.87837564  0.22274279  0.39635670    -0.34400
C1206       C  0.89922582  0.23120800  0.37560070     0.15900
O1207       O  0.92746524  0.26272415  0.35063339    -0.26400
C1208       C  0.93400993  0.23522733  0.34383654     0.05700
C1209       C  0.91709903  0.21477537  0.35864022    -0.31300
O1210       O  0.84591724  0.24240374  0.43326887    -0.23200
C1211       C  0.84133332  0.26961575  0.44224328    -0.03100
C1212       C  0.85733866  0.29033951  0.42673456    -0.17600
H1213       H  0.89898562  0.30544599  0.38235633     0.20400
H1214       H  0.87335594  0.20002146  0.40063198     0.18800
H1215       H  0.91845952  0.19117163  0.35769317     0.18700
H1216       H  0.85772744  0.31380357  0.42973748     0.14600
C1217       C  0.09998543  0.23041989  0.37717268     0.30000
C1218       C  0.12060351  0.21959668  0.39721772    -0.36300
C1219       C  0.13554963  0.24063663  0.41373526     0.16000
C1220       C  0.13034342  0.27022675  0.41084692     0.21800
C1221       C  0.11005866  0.28105905  0.39052069    -0.34400
C1222       C  0.09533018  0.26005650  0.37383392     0.15900
O1223       O  0.08255084  0.21466638  0.36052117    -0.26400
C1224       C  0.06679909  0.23448653  0.34612930     0.05700
C1225       C  0.07393582  0.26310444  0.35333702    -0.31300
O1226       O  0.14598981  0.28595351  0.42916353    -0.23200
C1227       C  0.16167149  0.26625738  0.44378470    -0.03100
C1228       C  0.15616641  0.23766129  0.43510108    -0.17600
H1229       H  0.12437380  0.19641162  0.40006012     0.20400
H1230       H  0.10577417  0.30421197  0.38818039     0.18800
H1231       H  0.06398241  0.28311509  0.34549955     0.18700
H1232       H  0.16557353  0.21767562  0.44363983     0.14600
C1233       C  0.88866870  0.25030119  0.12021626     0.30000
C1234       C  0.89340735  0.23023920  0.14257727    -0.36300
C1235       C  0.90846288  0.24069809  0.16681212     0.16000
C1236       C  0.91878358  0.26895601  0.16904084     0.21800
C1237       C  0.91310942  0.28958186  0.14676189    -0.34400
C1238       C  0.89756131  0.27905491  0.12228613     0.15900
O1239       O  0.87593575  0.24428050  0.09535297    -0.26400
C1240       C  0.87604202  0.26942404  0.08099140     0.05700
C1241       C  0.88903392  0.29216578  0.09663842    -0.31300
O1242       O  0.93660263  0.27217099  0.19168343    -0.23200
C1243       C  0.93713108  0.24564282  0.20383315    -0.03100
C1244       C  0.91954259  0.22556918  0.18952275    -0.17600
H1245       H  0.88681834  0.20759433  0.14065842     0.20400
H1246       H  0.92135320  0.31172281  0.14780090     0.18800
H1247       H  0.89168097  0.31476416  0.09015671     0.18700
H1248       H  0.91807580  0.20222454  0.19323121     0.14600
C1249       C  0.90203236  0.23105934  0.63905044     0.30000
C1250       C  0.88239672  0.22047180  0.61792393    -0.36300
C1251       C  0.86493305  0.24147873  0.60394770     0.16000
C1252       C  0.86681747  0.27089997  0.61027724     0.21800
C1253       C  0.88609259  0.28144287  0.63178100    -0.34400
C1254       C  0.90348279  0.26040470  0.64583888     0.15900
O1255       O  0.92138405  0.21542078  0.65362605    -0.26400
C1256       C  0.93529466  0.23488996  0.67019378     0.05700
C1257       C  0.92497997  0.26327145  0.66640675    -0.31300
O1258       O  0.85005375  0.28690238  0.59311534    -0.23200
C1259       C  0.83702632  0.26751585  0.57571959    -0.03100
C1260       C  0.84529129  0.23884112  0.58158273    -0.17600
H1261       H  0.88137683  0.19754100  0.61223344     0.20400
H1262       H  0.88796510  0.30451517  0.63662548     0.18800
H1263       H  0.93277965  0.28313201  0.67662133     0.18700
H1264       H  0.83890909  0.21917261  0.57009462     0.14600
C1265       C  0.09861262  0.25917498  0.64703816     0.30000
C1266       C  0.11295673  0.28226436  0.63275026    -0.36300
C1267       C  0.13367673  0.27421614  0.61154492     0.16000
C1268       C  0.14018261  0.24545850  0.60512537     0.21800
C1269       C  0.12592967  0.22242319  0.61943248    -0.34400
C1270       C  0.10497531  0.23046279  0.64030227     0.15900
O1271       O  0.07724055  0.26155357  0.66637837    -0.26400
C1272       C  0.06975818  0.23397109  0.67186878     0.05700
C1273       C  0.08636106  0.21378206  0.65629876    -0.31300
O1274       O  0.15944862  0.24288920  0.58380451    -0.23200
C1275       C  0.16523530  0.27036153  0.57628008    -0.03100
C1276       C  0.14983568  0.29077879  0.59280786    -0.17600
H1277       H  0.10772185  0.30489154  0.63722213     0.20400
H1278       H  0.13027030  0.19979950  0.61406880     0.18800
H1279       H  0.08438309  0.19020316  0.65617349     0.18700
H1280       H  0.15004588  0.31435522  0.59081486     0.14600
C1281       C  0.84239559  0.08165341  0.74668480     0.30000
C1282       C  0.86474997  0.08692226  0.72610058    -0.36300
C1283       C  0.88874919  0.10337509  0.73622506     0.16000
C1284       C  0.89031693  0.11368233  0.76456532     0.21800
C1285       C  0.86790275  0.10909129  0.78470106    -0.34400
C1286       C  0.84415979  0.09287281  0.77466205     0.15900
O1287       O  0.81989796  0.06372783  0.74359045    -0.26400
C1288       C  0.80733281  0.06380187  0.76992148     0.05700
C1289       C  0.82133758  0.08188474  0.78984545    -0.31300
O1290       O  0.91481836  0.12739455  0.77011988    -0.23200
C1291       C  0.92942432  0.12630552  0.74508751    -0.03100
C1292       C  0.91429193  0.11175769  0.72293712    -0.17600
H1293       H  0.86406185  0.07784901  0.70425006     0.20400
H1294       H  0.86941423  0.11671664  0.80707359     0.18800
H1295       H  0.81708857  0.08415761  0.81304728     0.18700
H1296       H  0.92103098  0.10804282  0.70055100     0.14600
C1297       C  0.16176744  0.08453034  0.75219348     0.30000
C1298       C  0.13900744  0.08811181  0.73160970    -0.36300
C1299       C  0.11440590  0.10399427  0.74120495     0.16000
C1300       C  0.11257258  0.11530903  0.76911848     0.21800
C1301       C  0.13534776  0.11225873  0.78932434    -0.34400
C1302       C  0.15976966  0.09663985  0.77975432     0.15900
O1303       O  0.18520562  0.06775474  0.74939100    -0.26400
C1304       C  0.19827547  0.06941305  0.77547411     0.05700
C1305       C  0.18350839  0.08742210  0.79497476    -0.31300
O1306       O  0.08771951  0.12878061  0.77401333    -0.23200
C1307       C  0.07316210  0.12650122  0.74893768    -0.03100
C1308       C  0.08868503  0.11132862  0.72751044    -0.17600
H1309       H  0.14000053  0.07842792  0.71003906     0.20400
H1310       H  0.13376607  0.12081243  0.81134594     0.18800
H1311       H  0.18803627  0.09083086  0.81798961     0.18700
H1312       H  0.08220375  0.10681117  0.70518265     0.14600
C1313       C  0.88970782  0.24315729  0.89863633     0.30000
C1314       C  0.89365872  0.22374332  0.87545130    -0.36300
C1315       C  0.90926420  0.23443654  0.85150308     0.16000
C1316       C  0.92082520  0.26225303  0.85031701     0.21800
C1317       C  0.91636012  0.28207896  0.87354952    -0.34400
C1318       C  0.90028293  0.27138674  0.89764509     0.15900
O1319       O  0.87576918  0.23722521  0.92301919    -0.26400
C1320       C  0.87696565  0.26193857  0.93814671     0.05700
C1321       C  0.89193900  0.28415120  0.92347587    -0.31300
O1322       O  0.93795832  0.26597369  0.82718350    -0.23200
C1323       C  0.93688464  0.24022126  0.81348099    -0.03100
C1324       C  0.91899012  0.22011930  0.82757282    -0.17600
H1325       H  0.88564458  0.20149842  0.87631888     0.20400
H1326       H  0.92546379  0.30390460  0.87325254     0.18800
H1327       H  0.89559127  0.30642574  0.93052359     0.18700
H1328       H  0.91617377  0.19715310  0.82259168     0.14600
C1329       C  0.25016147  0.59800503  0.14494520     0.30000
C1330       C  0.22688219  0.61213955  0.13067903    -0.36300
C1331       C  0.23468024  0.63225188  0.10880267     0.16000
C1332       C  0.26338923  0.63851040  0.10179604     0.21800
C1333       C  0.28663090  0.62444346  0.11609636    -0.34400
C1334       C  0.27883595  0.60396163  0.13757364     0.15900
O1335       O  0.24795828  0.57714793  0.16485537    -0.26400
C1336       C  0.27560262  0.56952941  0.17009847     0.05700
C1337       C  0.29568574  0.58551356  0.15373383    -0.31300
O1338       O  0.26566324  0.65725175  0.07992570    -0.23200
C1339       C  0.23803900  0.66279107  0.07257993    -0.03100
C1340       C  0.21784379  0.64788889  0.08983598    -0.17600
H1341       H  0.20427619  0.60713244  0.13563165     0.20400
H1342       H  0.30921213  0.62852339  0.11026032     0.18800
H1343       H  0.31926836  0.58328189  0.15326668     0.18700
H1344       H  0.19420428  0.64815808  0.08823083     0.14600
C1345       C  0.23315566  0.63154811  0.90452723     0.30000
C1346       C  0.22240911  0.61058734  0.88478198    -0.36300
C1347       C  0.24346121  0.59600703  0.86786679     0.16000
C1348       C  0.27302103  0.60163410  0.87041321     0.21800
C1349       C  0.28370920  0.62283800  0.88983962    -0.34400
C1350       C  0.26268468  0.63748135  0.90663665     0.15900
O1351       O  0.21754899  0.64667491  0.92345179    -0.26400
C1352       C  0.23728994  0.66263972  0.93777136     0.05700
C1353       C  0.26575655  0.65794387  0.92810434    -0.31300
O1354       O  0.28900167  0.58436699  0.85385206    -0.23200
C1355       C  0.26951682  0.56758752  0.84021116    -0.03100
C1356       C  0.24074647  0.57390122  0.84796681    -0.17600
H1357       H  0.19932321  0.60554199  0.88320965     0.20400
H1358       H  0.30688582  0.62712057  0.89218342     0.18800
H1359       H  0.28581012  0.66746351  0.93635883     0.18700
H1360       H  0.22093361  0.56301560  0.84091830     0.14600
C1361       C  0.08904406  0.74425186  0.84560692     0.30000
C1362       C  0.09360227  0.72405817  0.86847943    -0.36300
C1363       C  0.10975637  0.73431522  0.89264710     0.16000
C1364       C  0.12053082  0.76245010  0.89401078     0.21800
C1365       C  0.11657238  0.78226596  0.87106425    -0.34400
C1366       C  0.10065400  0.77204224  0.84706418     0.15900
O1367       O  0.07159751  0.74089008  0.82269353    -0.26400
C1368       C  0.07238733  0.76684489  0.80937972     0.05700
C1369       C  0.09049890  0.78678118  0.82346003    -0.31300
O1370       O  0.13420891  0.76796223  0.91868552    -0.23200
C1371       C  0.13249115  0.74306516  0.93357311    -0.03100
C1372       C  0.11759438  0.72118181  0.91843938    -0.17600
H1373       H  0.08430035  0.70232016  0.86797306     0.20400
H1374       H  0.12458605  0.80449399  0.87225519     0.18800
H1375       H  0.09327879  0.80980783  0.81871713     0.18700
H1376       H  0.11348831  0.69890646  0.92527359     0.14600
C1377       C  0.11588782  0.75851221  0.11596906     0.30000
C1378       C  0.10982415  0.77885133  0.13786654    -0.36300
C1379       C  0.09487694  0.76824322  0.16227274     0.16000
C1380       C  0.08605128  0.73955675  0.16516794     0.21800
C1381       C  0.09288437  0.71880696  0.14335321    -0.34400
C1382       C  0.10811569  0.72949744  0.11869799     0.15900
O1383       O  0.12902798  0.76434861  0.09111900    -0.26400
C1384       C  0.13010723  0.73881868  0.07740042     0.05700
C1385       C  0.11754553  0.71612501  0.09354481    -0.31300
O1386       O  0.06877639  0.73571052  0.18819512    -0.23200
C1387       C  0.06692330  0.76232628  0.20003594    -0.03100
C1388       C  0.08316324  0.78310338  0.18494015    -0.17600
H1389       H  0.11553325  0.80169905  0.13557108     0.20400
H1390       H  0.08585938  0.69628002  0.14493413     0.18800
H1391       H  0.11596026  0.69324641  0.08778230     0.18700
H1392       H  0.08374565  0.80650410  0.18844845     0.14600
C1393       C  0.24739790  0.88987525  0.89498405     0.30000
C1394       C  0.22978707  0.86510825  0.89760426    -0.36300
C1395       C  0.24087392  0.84264082  0.91504605     0.16000
C1396       C  0.26740141  0.84431631  0.92941004     0.21800
C1397       C  0.28535900  0.86919455  0.92648831    -0.34400
C1398       C  0.27427993  0.89178925  0.90866220     0.15900
O1399       O  0.24079485  0.91335025  0.87983806    -0.26400
C1400       C  0.26371884  0.93076625  0.88347545     0.05700
C1401       C  0.28540135  0.91857160  0.90122684    -0.31300
O1402       O  0.27147943  0.82202378  0.94745808    -0.23200
C1403       C  0.24736682  0.80593073  0.94411412    -0.03100
C1404       C  0.22779256  0.81773525  0.92411769    -0.17600
H1405       H  0.20849514  0.86374635  0.88728143     0.20400
H1406       H  0.30600511  0.87115796  0.93794625     0.18800
H1407       H  0.30629032  0.92787677  0.90737529     0.18700
H1408       H  0.20568208  0.81060034  0.91942749     0.14600
C1409       C  0.27108992  0.40224487  0.87316974     0.30000
C1410       C  0.28114688  0.38265651  0.89449423    -0.36300
C1411       C  0.25962989  0.36608994  0.90857621     0.16000
C1412       C  0.23018323  0.36881035  0.90232368     0.21800
C1413       C  0.22016723  0.38790554  0.88043572    -0.34400
C1414       C  0.24175862  0.40433002  0.86615071     0.15900
O1415       O  0.28726364  0.42108104  0.85866453    -0.26400
C1416       C  0.26815375  0.43517799  0.84184468     0.05700
C1417       C  0.23950709  0.42555038  0.84532745    -0.31300
O1418       O  0.21375169  0.35294837  0.91989050    -0.23200
C1419       C  0.23299189  0.33963221  0.93727200    -0.03100
C1420       C  0.26186353  0.34678576  0.93109392    -0.17600
H1421       H  0.30406451  0.38107929  0.90030584     0.20400
H1422       H  0.19712561  0.39041909  0.87551933     0.18800
H1423       H  0.21986981  0.43377797  0.83490906     0.18700
H1424       H  0.28146630  0.33992958  0.94252762     0.14600
C1425       C  0.24887830  0.40964867  0.14108883     0.30000
C1426       C  0.22552648  0.39556379  0.12709214    -0.36300
C1427       C  0.23320858  0.37525731  0.10546650     0.16000
C1428       C  0.26185329  0.36885876  0.09826733     0.21800
C1429       C  0.28520750  0.38305772  0.11216497    -0.34400
C1430       C  0.27751533  0.40361174  0.13356747     0.15900
O1431       O  0.24678019  0.43004943  0.16138481    -0.26400
C1432       C  0.27445396  0.43726333  0.16675191     0.05700
C1433       C  0.29446496  0.42153472  0.15006107    -0.31300
O1434       O  0.26389208  0.34939179  0.07705134    -0.23200
C1435       C  0.23616024  0.34354416  0.07045025    -0.03100
C1436       C  0.21618763  0.35901471  0.08739794    -0.17600
H1437       H  0.20295445  0.40042945  0.13234626     0.20400
H1438       H  0.30776220  0.37871998  0.10640292     0.18800
H1439       H  0.31808667  0.42336190  0.14986412     0.18700
H1440       H  0.19252053  0.35852857  0.08630756     0.14600
C1441       C  0.08631151  0.26907438  0.17020395     0.30000
C1442       C  0.09227694  0.28983986  0.14811139    -0.36300
C1443       C  0.10755485  0.27934682  0.12344133     0.16000
C1444       C  0.11612879  0.25052227  0.12105102     0.21800
C1445       C  0.11106726  0.23026754  0.14323724    -0.34400
C1446       C  0.09610705  0.24065907  0.16761832     0.15900
O1447       O  0.06853695  0.27236381  0.19288183    -0.26400
C1448       C  0.06741579  0.24570703  0.20474661     0.05700
C1449       C  0.08460862  0.22546038  0.19013135    -0.31300
O1450       O  0.12860592  0.24459518  0.09598481    -0.23200
C1451       C  0.12853001  0.26985447  0.08175251    -0.03100
C1452       C  0.11586412  0.29255006  0.09776391    -0.17600
H1453       H  0.08432702  0.31208284  0.14937313     0.20400
H1454       H  0.11725270  0.20753156  0.14103916     0.18800
H1455       H  0.08557682  0.20204374  0.19353120     0.18700
H1456       H  0.11322687  0.31520544  0.09146321     0.14600
C1457       C  0.10878181  0.24384815  0.90064329     0.30000
C1458       C  0.10456182  0.22370033  0.87818623    -0.36300
C1459       C  0.08980965  0.23407475  0.85358106     0.16000
C1460       C  0.07936021  0.26227684  0.85113213     0.21800
C1461       C  0.08400571  0.28275806  0.87366241    -0.34400
C1462       C  0.09919991  0.27238120  0.89840855     0.15900
O1463       O  0.12252931  0.23851993  0.92524107    -0.26400
C1464       C  0.12217029  0.26391754  0.93919093     0.05700
C1465       C  0.10790946  0.28597023  0.92362892    -0.31300
O1466       O  0.06305891  0.26589315  0.82744124    -0.23200
C1467       C  0.06351473  0.23968189  0.81472819    -0.03100
C1468       C  0.08014720  0.21930954  0.82992867    -0.17600
H1469       H  0.11189729  0.20126770  0.87999086     0.20400
H1470       H  0.07581191  0.30491134  0.87229585     0.18800
H1471       H  0.10531389  0.30872267  0.92952914     0.18700
H1472       H  0.08218190  0.19610096  0.82574045     0.14600
C1473       C  0.26154518  0.16338315  0.92514685     0.30000
C1474       C  0.28387646  0.14370935  0.91686375    -0.36300
C1475       C  0.27450617  0.11703654  0.90448635     0.16000
C1476       C  0.24526104  0.11045044  0.90082300     0.21800
C1477       C  0.22323838  0.13016477  0.90834313    -0.34400
C1478       C  0.23252371  0.15657770  0.92037001     0.15900
O1479       O  0.26462304  0.18804433  0.94011000    -0.26400
C1480       C  0.23713368  0.19692396  0.94456119     0.05700
C1481       C  0.21650456  0.17829316  0.93231592    -0.31300
O1482       O  0.24094233  0.08438270  0.88973299    -0.23200
C1483       C  0.26766888  0.07374582  0.88579111    -0.03100
C1484       C  0.28963578  0.09314942  0.89441407    -0.17600
H1485       H  0.30677396  0.14842790  0.92063716     0.20400
H1486       H  0.20028778  0.12490395  0.90572114     0.18800
H1487       H  0.19291034  0.17919356  0.93438405     0.18700
H1488       H  0.31310130  0.09025537  0.89306189     0.14600
C1489       C  0.60683986  0.86216326  0.27226355     0.30000
C1490       C  0.63003621  0.87961124  0.28224475    -0.36300
C1491       C  0.64243902  0.89847959  0.26151933     0.16000
C1492       C  0.63265063  0.89996704  0.23296366     0.21800
C1493       C  0.60999803  0.88196133  0.22278582    -0.34400
C1494       C  0.59760023  0.86310342  0.24349722     0.15900
O1495       O  0.59019687  0.84528505  0.28858473    -0.26400
C1496       C  0.57026725  0.83501719  0.27000228     0.05700
C1497       C  0.57395816  0.84507215  0.24153502    -0.31300
O1498       O  0.64586438  0.92057495  0.21786196    -0.23200
C1499       C  0.66450846  0.93235930  0.23686711    -0.03100
C1500       C  0.66354318  0.91935503  0.26437338    -0.17600
H1501       H  0.63706772  0.87938492  0.30487244     0.20400
H1502       H  0.60184989  0.88339422  0.20057729     0.18800
H1503       H  0.56006498  0.84127452  0.22271555     0.18700
H1504       H  0.67586147  0.92508046  0.28378435     0.14600
C1505       C  0.63563878  0.09991922  0.23502588     0.30000
C1506       C  0.61568223  0.12112968  0.22526719    -0.36300
C1507       C  0.59991429  0.13574613  0.24710896     0.16000
C1508       C  0.60335872  0.12969508  0.27651256     0.21800
C1509       C  0.62362724  0.10877653  0.28628942    -0.34400
C1510       C  0.63959241  0.09434002  0.26445906     0.15900
O1511       O  0.65151793  0.08264372  0.21833401    -0.26400
C1512       C  0.66610897  0.06598830  0.23728897     0.05700
C1513       C  0.65969632  0.07238904  0.26633522    -0.31300
O1514       O  0.58524625  0.14482135  0.29305060    -0.23200
C1515       C  0.57022436  0.16102912  0.27404129    -0.03100
C1516       C  0.57849835  0.15638819  0.24512496    -0.17600
H1517       H  0.61225892  0.12549662  0.20223019     0.20400
H1518       H  0.62633151  0.10370109  0.30927525     0.18800
H1519       H  0.66771819  0.06160564  0.28585938     0.18700
H1520       H  0.56936117  0.16606070  0.22550609     0.14600
C1521       C  0.73468326  0.11023386  0.11085679     0.30000
C1522       C  0.72183018  0.13456367  0.09688827    -0.36300
C1523       C  0.74060370  0.15839737  0.09134508     0.16000
C1524       C  0.76974416  0.15814978  0.09938048     0.21800
C1525       C  0.78237505  0.13417067  0.11337152    -0.34400
C1526       C  0.76393416  0.11045547  0.11833147     0.15900
O1527       O  0.72177598  0.08529508  0.11805207    -0.26400
C1528       C  0.74341596  0.06952903  0.12976630     0.05700
C1529       C  0.76999506  0.08419524  0.13030065    -0.31300
O1530       O  0.78430749  0.18066068  0.08926812    -0.23200
C1531       C  0.76454582  0.19592064  0.07442191    -0.03100
C1532       C  0.73671581  0.18336263  0.07521243    -0.17600
H1533       H  0.69916823  0.13454042  0.08998488     0.20400
H1534       H  0.80542624  0.13354363  0.11884486     0.18800
H1535       H  0.79070893  0.07689738  0.13925155     0.18700
H1536       H  0.71747337  0.18979809  0.06295934     0.14600
C1537       C  0.75601957  0.88874411  0.11090535     0.30000
C1538       C  0.77738343  0.86851355  0.10323099    -0.36300
C1539       C  0.76731235  0.84280865  0.09056058     0.16000
C1540       C  0.73813519  0.83706252  0.08530386     0.21800
C1541       C  0.71637545  0.85729785  0.09382063    -0.34400
C1542       C  0.72657438  0.88337912  0.10683490     0.15900
O1543       O  0.76129228  0.91430305  0.12251392    -0.26400
C1544       C  0.73504223  0.92597649  0.12639736     0.05700
C1545       C  0.71231736  0.90771297  0.11720075    -0.31300
O1546       O  0.73450783  0.81289981  0.06964621    -0.23200
C1547       C  0.76181726  0.80341025  0.06535637    -0.03100
C1548       C  0.78280964  0.82104642  0.07827943    -0.17600
H1549       H  0.80047760  0.87293274  0.10616546     0.20400
H1550       H  0.69337124  0.85347643  0.08969396     0.18800
H1551       H  0.68898185  0.91153492  0.11848103     0.18700
H1552       H  0.80639597  0.81949785  0.07645134     0.14600
C1553       C  0.88763726  0.88117762  0.24776742     0.30000
C1554       C  0.86451793  0.88408075  0.22804453    -0.36300
C1555       C  0.84104562  0.90104578  0.23746216     0.16000
C1556       C  0.84022425  0.91449345  0.26447165     0.21800
C1557       C  0.86329116  0.91096001  0.28467003    -0.34400
C1558       C  0.88700631  0.89379657  0.27517849     0.15900
O1559       O  0.91210010  0.86728598  0.24252289    -0.26400
C1560       C  0.92761457  0.87062393  0.26684606     0.05700
C1561       C  0.91314017  0.88683931  0.28820434    -0.31300
O1562       O  0.81793606  0.93277274  0.26676428    -0.23200
C1563       C  0.80451833  0.93071977  0.24092066    -0.03100
C1564       C  0.81776328  0.91095466  0.22211699    -0.17600
H1565       H  0.86534943  0.87473455  0.20630451     0.20400
H1566       H  0.86335603  0.92188313  0.30566231     0.18800
H1567       H  0.92073443  0.89265108  0.30987068     0.18700
H1568       H  0.81284396  0.90697764  0.19927226     0.14600
C1569       C  0.89197464  0.10385849  0.27028885     0.30000
C1570       C  0.86715131  0.09043772  0.28284831    -0.36300
C1571       C  0.84653720  0.07873053  0.26304852     0.16000
C1572       C  0.85044722  0.08012368  0.23313408     0.21800
C1573       C  0.87493904  0.09350547  0.22069295    -0.34400
C1574       C  0.89528596  0.10508601  0.24031209     0.15900
O1575       O  0.91395169  0.11667445  0.28427073    -0.26400
C1576       C  0.93140421  0.12597245  0.26276083     0.05700
C1577       C  0.92074109  0.11925575  0.23507554    -0.31300
O1578       O  0.82991531  0.06637292  0.21853941    -0.23200
C1579       C  0.81209599  0.05609687  0.23906615    -0.03100
C1580       C  0.82117462  0.06320186  0.26734894    -0.17600
H1581       H  0.86423033  0.08903265  0.30630476     0.20400
H1582       H  0.87812636  0.09443055  0.19723630     0.18800
H1583       H  0.93007190  0.12474636  0.21400201     0.18700
H1584       H  0.81168211  0.05627930  0.28790359     0.14600
C1585       C  0.36629074  0.90056745  0.23607092     0.30000
C1586       C  0.38376657  0.87725503  0.22647522    -0.36300
C1587       C  0.40343489  0.86576120  0.24705621     0.16000
C1588       C  0.40597411  0.87668622  0.27507821     0.21800
C1589       C  0.38817421  0.89974969  0.28482940    -0.34400
C1590       C  0.36820144  0.91099863  0.26433866     0.15900
O1591       O  0.34763018  0.91554073  0.21994855    -0.26400
C1592       C  0.33700729  0.93552750  0.23820561     0.05700
C1593       C  0.34885330  0.93365084  0.26622389    -0.31300
O1594       O  0.42644740  0.86322749  0.29037757    -0.23200
C1595       C  0.43695838  0.84321507  0.27202140    -0.03100
C1596       C  0.42338373  0.84372627  0.24476045    -0.17600
H1597       H  0.38243006  0.86895338  0.20434455     0.20400
H1598       H  0.39001104  0.90852286  0.30674087     0.18800
H1599       H  0.34496645  0.94789326  0.28471517     0.18700
H1600       H  0.42782211  0.83009096  0.22593889     0.14600
C1601       C  0.40299127  0.12947386  0.27659494     0.30000
C1602       C  0.38077965  0.11079855  0.28665792    -0.36300
C1603       C  0.36558449  0.09515540  0.26506860     0.16000
C1604       C  0.37217627  0.09743740  0.23568174     0.21800
C1605       C  0.39402274  0.11644686  0.22559563    -0.34400
C1606       C  0.40889492  0.13239163  0.24711912     0.15900
O1607       O  0.42057815  0.14540724  0.29297121    -0.26400
C1608       C  0.43765930  0.15901851  0.27370482     0.05700
C1609       C  0.43128056  0.15189714  0.24482716    -0.31300
O1610       O  0.35640697  0.07968066  0.21942175    -0.23200
C1611       C  0.33913888  0.06613059  0.23852264    -0.03100
C1612       C  0.34371290  0.07498302  0.26728133    -0.17600
H1613       H  0.37595797  0.10835342  0.30971519     0.20400
H1614       H  0.39931881  0.11836605  0.20259251     0.18800
H1615       H  0.44214844  0.15932769  0.22514290     0.18700
H1616       H  0.33325303  0.06693502  0.28694237     0.14600
C1617       C  0.24194121  0.83966975  0.09786748     0.30000
C1618       C  0.22889993  0.86117661  0.11506216    -0.36300
C1619       C  0.24490328  0.88682145  0.11872288     0.16000
C1620       C  0.27233871  0.89116780  0.10695471     0.21800
C1621       C  0.28561564  0.86936231  0.08964471    -0.34400
C1622       C  0.26924968  0.84352508  0.08555681     0.15900
O1623       O  0.22871024  0.81601826  0.08858096    -0.26400
C1624       C  0.24756885  0.80402332  0.07010268     0.05700
C1625       C  0.27347277  0.81998834  0.06749604    -0.31300
O1626       O  0.28307110  0.91726798  0.11362444    -0.23200
C1627       C  0.26180049  0.92957941  0.12939610    -0.03100
C1628       C  0.23764984  0.91156030  0.13302683    -0.17600
H1629       H  0.20708802  0.85859119  0.12391742     0.20400
H1630       H  0.30668080  0.87265504  0.07936350     0.18800
H1631       H  0.29101349  0.81675899  0.05193237     0.18700
H1632       H  0.21781747  0.91580041  0.14526634     0.14600
C1633       C  0.23712885  0.16128641  0.09469801     0.30000
C1634       C  0.22473979  0.13679406  0.10781597    -0.36300
C1635       C  0.24386008  0.11402507  0.11422032     0.16000
C1636       C  0.27357114  0.11518088  0.10912395     0.21800
C1637       C  0.28618995  0.14005883  0.09579395    -0.34400
C1638       C  0.26666087  0.16294511  0.08857247     0.15900
O1639       O  0.22212940  0.18310053  0.08383718    -0.26400
C1640       C  0.24185627  0.19940168  0.07023921     0.05700
C1641       C  0.27022864  0.18818225  0.07260849    -0.31300
O1642       O  0.28702411  0.09087085  0.11766611    -0.23200
C1643       C  0.26520128  0.07411322  0.12754918    -0.03100
C1644       C  0.23806305  0.08756144  0.12572554    -0.17600
H1645       H  0.20141980  0.13510812  0.11162826     0.20400
H1646       H  0.30926519  0.14111460  0.09060991     0.18800
H1647       H  0.28982338  0.19572479  0.06167924     0.18700
H1648       H  0.21704308  0.07937148  0.13296628     0.14600
C1649       C  0.10955933  0.89959747  0.27238484     0.30000
C1650       C  0.13542561  0.91119847  0.28469140    -0.36300
C1651       C  0.15627926  0.92199073  0.26464582     0.16000
C1652       C  0.15167206  0.92118540  0.23479699     0.21800
C1653       C  0.12611751  0.90980433  0.22266251    -0.34400
C1654       C  0.10546958  0.89941669  0.24247708     0.15900
O1655       O  0.08742669  0.88720747  0.28644951    -0.26400
C1656       C  0.06911706  0.87943597  0.26501738     0.05700
C1657       C  0.07928000  0.88679575  0.23737029    -0.31300
O1658       O  0.17248228  0.93402236  0.21993158    -0.23200
C1659       C  0.19110630  0.94334953  0.24015859    -0.03100
C1660       C  0.18240808  0.93631708  0.26858382    -0.17600
H1661       H  0.13895192  0.91191254  0.30810137     0.20400
H1662       H  0.12238829  0.90950993  0.19926104     0.18800
H1663       H  0.06947857  0.88203390  0.21631844     0.18700
H1664       H  0.19249307  0.94283951  0.28899534     0.14600
C1665       C  0.16067256  0.08568042  0.26215034     0.30000
C1666       C  0.13862300  0.09066059  0.28315523    -0.36300
C1667       C  0.11423288  0.10690755  0.27352115     0.16000
C1668       C  0.11208307  0.11740291  0.24527206     0.21800
C1669       C  0.13420153  0.11311398  0.22472432    -0.34400
C1670       C  0.15829026  0.09701039  0.23424655     0.15900
O1671       O  0.18344375  0.06797353  0.26480492    -0.26400
C1672       C  0.19559441  0.06826303  0.23826002     0.05700
C1673       C  0.18100131  0.08630982  0.21863254    -0.31300
O1674       O  0.08737589  0.13100392  0.24022257    -0.23200
C1675       C  0.07316418  0.12960275  0.26547849    -0.03100
C1676       C  0.08879748  0.11494465  0.28727057    -0.17600
H1677       H  0.13981155  0.08149805  0.30496900     0.20400
H1678       H  0.13222302  0.12088237  0.20241931     0.18800
H1679       H  0.18486100  0.08882072  0.19538143     0.18700
H1680       H  0.08250832  0.11106286  0.30976789     0.14600
loop_ 
_geom_bond_atom_site_label_1 
_geom_bond_atom_site_label_2 
_geom_bond_distance 
_geom_bond_site_symmetry_2 
_ccdc_geom_bond_type 
Fe1          O17   2.034   1_545  S
Fe1           O7   2.036   1_545  S
Fe1          O14   2.046       .  S
Fe1           O6   2.041       .  S
Fe1          O12   1.950       .  S
Fe2           O5   2.057   1_545  S
Fe2           O9   2.096   1_545  S
Fe2          O13   2.078       .  S
Fe2          O18   2.060       .  S
Fe2          O12   1.974       .  S
Fe3          O21   2.087   1_545  S
Fe3           O8   2.073       .  S
Fe3          O15   2.088   1_545  S
Fe3           O4   2.096       .  S
Fe3          O12   1.983       .  S
O4           C11   1.274       .  A
O5           C19   1.268       .  A
O6           C11   1.267       .  A
O7           C10   1.263       .  A
O8           C20   1.272       .  A
O9           C22   1.272       .  A
C10          O15   1.271       .  A
C10        C1659   1.467       .  S
C11        C1672   1.470       .  S
O13          C16   1.266       .  A
O14          C16   1.264       .  A
C16        C1643   1.473       .  S
O17          C22   1.265       .  A
O18          C20   1.269       .  A
C19          O21   1.274       .  A
C19        C1592   1.470       .  S
C20        C1611   1.467       .  S
C22        C1627   1.473       .  S
Fe23         O39   2.031   1_565  S
Fe23         O29   2.042   1_565  S
Fe23         O36   2.037       .  S
Fe23         O28   2.037       .  S
Fe23         O34   1.953       .  S
Fe24         O27   2.052   1_565  S
Fe24         O31   2.091   1_565  S
Fe24         O35   2.078       .  S
Fe24         O40   2.057       .  S
Fe24         O34   1.981       .  S
Fe25         O43   2.082   1_565  S
Fe25         O30   2.078       .  S
Fe25         O37   2.092   1_565  S
Fe25         O26   2.087       .  S
Fe25         O34   1.984       .  S
O26          C33   1.271       .  A
O27          C41   1.266       .  A
O28          C33   1.265       .  A
O29          C32   1.264       .  A
O30          C42   1.273       .  A
O31          C44   1.272       .  A
C32          O37   1.273       .  A
C32        C1579   1.471       .  S
C33        C1563   1.465       .  S
O35          C38   1.265       .  A
O36          C38   1.261       .  A
C38        C1544   1.467       .  S
O39          C44   1.265       .  A
O40          C42   1.269       .  A
C41          O43   1.272       .  A
C41        C1512   1.469       .  S
C42        C1499   1.467       .  S
C44        C1528   1.471       .  S
Fe45         O61   2.037   1_554  S
Fe45         O51   2.038   1_554  S
Fe45         O58   2.043       .  S
Fe45         O50   2.031       .  S
Fe45         O56   1.954       .  S
Fe46         O49   2.054   1_554  S
Fe46         O53   2.074   1_554  S
Fe46         O57   2.077       .  S
Fe46         O62   2.047       .  S
Fe46         O56   1.990       .  S
Fe47         O65   2.072   1_554  S
Fe47         O52   2.082       .  S
Fe47         O59   2.094   1_554  S
Fe47         O48   2.092       .  S
Fe47         O56   1.995       .  S
O48          C55   1.271       .  A
O49          C63   1.266       .  A
O50          C55   1.263       .  A
O51          C54   1.266       .  A
O52          C64   1.273       .  A
O53          C66   1.266       .  A
C54          O59   1.273       .  A
C54        C1480   1.474       .  S
C55        C1640   1.467       .  S
O57          C60   1.267       .  A
O58          C60   1.264       .  A
C60        C1451   1.467       .  S
O61          C66   1.262       .  A
O62          C64   1.267       .  A
C63          O65   1.271       .  A
C63        C1419   1.464       .  S
C64        C1435   1.467       .  S
C66        C1464   1.463       .  S
Fe67         O83   2.050       .  S
Fe67         O73   2.034       .  S
Fe67         O80   2.045   1_554  S
Fe67         O72   2.041   1_554  S
Fe67         O78   1.959       .  S
Fe68         O71   2.060       .  S
Fe68         O75   2.074       .  S
Fe68         O79   2.085   1_554  S
Fe68         O84   2.054   1_554  S
Fe68         O78   1.985       .  S
Fe69         O87   2.078       .  S
Fe69         O74   2.086   1_554  S
Fe69         O81   2.095       .  S
Fe69         O70   2.080   1_554  S
Fe69         O78   1.992       .  S
O70          C77   1.270       .  A
O71          C85   1.270       .  A
O72          C77   1.264       .  A
O73          C76   1.264       .  A
O74          C86   1.273       .  A
O75          C88   1.266       .  A
C76          O81   1.273       .  A
C76        C1624   1.465       .  S
C77        C1403   1.463       .  S
O79          C82   1.271       .  A
O80          C82   1.265       .  A
C82        C1371   1.470       .  S
O83          C88   1.264       .  A
O84          C86   1.266       .  A
C85          O87   1.273       .  A
C85        C1339   1.471       .  S
C86        C1352   1.473       .  S
C88        C1384   1.472       .  S
Fe89        O105   2.037       .  S
Fe89         O95   2.029       .  S
Fe89        O102   2.037   1_455  S
Fe89         O94   2.031   1_455  S
Fe89        O100   1.958       .  S
Fe90         O93   2.046       .  S
Fe90         O97   2.088       .  S
Fe90        O101   2.075   1_455  S
Fe90        O106   2.061   1_455  S
Fe90        O100   1.988       .  S
Fe91        O109   2.090       .  S
Fe91         O96   2.079   1_455  S
Fe91        O103   2.084       .  S
Fe91         O92   2.101   1_455  S
Fe91        O100   1.996       .  S
O92          C99   1.273       .  A
O93         C107   1.266       .  A
O94          C99   1.264       .  A
O95          C98   1.263       .  A
O96         C108   1.273       .  A
O97         C110   1.270       .  A
C98         O103   1.270       .  A
C98        C1467   1.464       .  S
C99        C1323   1.473       .  S
O101        C104   1.266       .  A
O102        C104   1.262       .  A
C104       C1291   1.464       .  S
O105        C110   1.262       .  A
O106        C108   1.269       .  A
C107        O109   1.273       .  A
C107       C1272   1.472       .  S
C108       C1256   1.471       .  S
C110       C1307   1.470       .  S
Fe111       O127   2.046   1_455  S
Fe111       O117   2.028   1_455  S
Fe111       O124   2.034       .  S
Fe111       O116   2.033       .  S
Fe111       O122   1.957       .  S
Fe112       O115   2.048   1_455  S
Fe112       O119   2.087   1_455  S
Fe112       O123   2.082       .  S
Fe112       O128   2.057       .  S
Fe112       O122   1.985       .  S
Fe113       O131   2.073   1_455  S
Fe113       O118   2.067       .  S
Fe113       O125   2.082   1_455  S
Fe113       O114   2.087       .  S
Fe113       O122   1.999       .  S
O114        C121   1.269       .  A
O115        C129   1.267       .  A
O116        C121   1.263       .  A
O117        C120   1.265       .  A
O118        C130   1.270       .  A
O119        C132   1.268       .  A
C120        O125   1.269       .  A
C120       C1243   1.462       .  S
C121       C1448   1.468       .  S
O123        C126   1.268       .  A
O124        C126   1.262       .  A
C126       C1675   1.466       .  S
O127        C132   1.264       .  A
O128        C130   1.268       .  A
C129        O131   1.270       .  A
C129       C1208   1.465       .  S
C130       C1224   1.464       .  S
C132       C1576   1.477       .  S
Fe133       O149   2.043       .  S
Fe133       O139   2.032       .  S
Fe133       O146   2.027   1_455  S
Fe133       O138   2.039   1_455  S
Fe133       O144   1.958       .  S
Fe134       O137   2.059       .  S
Fe134       O141   2.077       .  S
Fe134       O145   2.087   1_455  S
Fe134       O150   2.053   1_455  S
Fe134       O144   1.987       .  S
Fe135       O153   2.079       .  S
Fe135       O140   2.096   1_455  S
Fe135       O147   2.106       .  S
Fe135       O136   2.090   1_455  S
Fe135       O144   1.992       .  S
O136        C143   1.271       .  A
O137        C151   1.268       .  A
O138        C143   1.263       .  A
O139        C142   1.265       .  A
O140        C152   1.275       .  A
O141        C154   1.266       .  A
C142        O147   1.275       .  A
C142       C1387   1.476       .  S
C143       C1195   1.470       .  S
O145        C148   1.270       .  A
O146        C148   1.262       .  A
C148       C1560   1.463       .  S
O149        C154   1.264       .  A
O150        C152   1.266       .  A
C151        O153   1.273       .  A
C151       C1160   1.470       .  S
C152       C1176   1.476       .  S
C154       C1656   1.472       .  S
Fe155       O171   2.059   1_554  S
Fe155       O161   2.045   1_554  S
Fe155       O168   2.045       .  S
Fe155       O160   2.040       .  S
Fe155       O166   1.948       .  S
Fe156       O159   2.059   1_554  S
Fe156       O163   2.073   1_554  S
Fe156       O167   2.098       .  S
Fe156       O172   2.050       .  S
Fe156       O166   1.965       .  S
Fe157       O175   2.071   1_554  S
Fe157       O162   2.091       .  S
Fe157       O169   2.099   1_554  S
Fe157       O158   2.082       .  S
Fe157       O166   1.981       .  S
O158        C165   1.269       .  A
O159        C173   1.270       .  A
O160        C165   1.265       .  A
O161        C164   1.269       .  A
O162        C174   1.273       .  A
O163        C176   1.264       .  A
C164        O169   1.275       .  A
C164       C1144   1.471       .  S
C165       C1547   1.468       .  S
O167        C170   1.275       .  A
O168        C170   1.267       .  A
C170       C1192   1.473       .  S
O171        C176   1.264       .  A
O172        C174   1.266       .  A
C173        O175   1.272       .  A
C173       C1099   1.465       .  S
C174       C1112   1.471       .  S
C176       C1128   1.474       .  S
Fe177       O193   2.058       .  S
Fe177       O183   2.044       .  S
Fe177       O190   2.043   1_545  S
Fe177       O182   2.044   1_545  S
Fe177       O188   1.943       .  S
Fe178       O181   2.057       .  S
Fe178       O185   2.074       .  S
Fe178       O189   2.093   1_545  S
Fe178       O194   2.059   1_545  S
Fe178       O188   1.967       .  S
Fe179       O197   2.077       .  S
Fe179       O184   2.093   1_545  S
Fe179       O191   2.104       .  S
Fe179       O180   2.096   1_545  S
Fe179       O188   1.973       .  S
O180        C187   1.272       .  A
O181        C195   1.267       .  A
O182        C187   1.264       .  A
O183        C186   1.269       .  A
O184        C196   1.276       .  A
O185        C198   1.265       .  A
C186        O191   1.277       .  A
C186       C1304   1.472       .  S
C187       C1083   1.476       .  S
O189        C192   1.273       .  A
O190        C192   1.267       .  A
C192       C1400   1.468       .  S
O193        C198   1.264       .  A
O194        C196   1.270       .  A
C195        O197   1.273       .  A
C195       C1051   1.468       .  S
C196       C1064   1.472       .  S
C198       C1483   1.471       .  S
Fe199       O215   2.034   1_455  S
Fe199       O205   2.044   1_455  S
Fe199       O212   2.051       .  S
Fe199       O204   2.036       .  S
Fe199       O210   1.947       .  S
Fe200       O203   2.050   1_455  S
Fe200       O207   2.098   1_455  S
Fe200       O211   2.084       .  S
Fe200       O216   2.054       .  S
Fe200       O210   1.967       .  S
Fe201       O219   2.089   1_455  S
Fe201       O206   2.084       .  S
Fe201       O213   2.095   1_455  S
Fe201       O202   2.108       .  S
Fe201       O210   1.980       .  S
O202        C209   1.278       .  A
O203        C217   1.266       .  A
O204        C209   1.268       .  A
O205        C208   1.263       .  A
O206        C218   1.275       .  A
O207        C220   1.275       .  A
C208        O213   1.271       .  A
C208       C1131   1.475       .  S
C209       C1368   1.472       .  S
O211        C214   1.264       .  A
O212        C214   1.262       .  A
C214       C1080   1.478       .  S
O215        C220   1.268       .  A
O216        C218   1.269       .  A
C217        O219   1.274       .  A
C217       C1003   1.470       .  S
C218       C1016   1.467       .  S
C220       C1035   1.471       .  S
Fe221       O237   2.038       .  S
Fe221       O227   2.041       .  S
Fe221       O234   2.046   1_554  S
Fe221       O226   2.031   1_554  S
Fe221       O232   1.952       .  S
Fe222       O225   2.058       .  S
Fe222       O229   2.067       .  S
Fe222       O233   2.086   1_554  S
Fe222       O238   2.041   1_554  S
Fe222       O232   1.983       .  S
Fe223       O241   2.087       .  S
Fe223       O228   2.083   1_554  S
Fe223       O235   2.092       .  S
Fe223       O224   2.098   1_554  S
Fe223       O232   1.991       .  S
O224        C231   1.273       .  A
O225        C239   1.268       .  A
O226        C231   1.262       .  A
O227        C230   1.266       .  A
O228        C240   1.272       .  A
O229        C242   1.264       .  A
C230        O235   1.273       .  A
C230       C1531   1.467       .  S
C231        C984   1.471       .  S
O233        C236   1.270       .  A
O234        C236   1.265       .  A
C236       C1320   1.471       .  S
O237        C242   1.262       .  A
O238        C240   1.266       .  A
C239        O241   1.274       .  A
C239        C952   1.473       .  S
C240        C971   1.465       .  S
C242       C1240   1.460       .  S
Fe243       O259   2.036       .  S
Fe243       O249   2.033       .  S
Fe243       O256   2.046   1_565  S
Fe243       O248   2.037   1_565  S
Fe243       O254   1.958       .  S
Fe244       O247   2.052       .  S
Fe244       O251   2.094       .  S
Fe244       O255   2.077   1_565  S
Fe244       O260   2.057   1_565  S
Fe244       O254   1.982       .  S
Fe245       O263   2.077       .  S
Fe245       O250   2.075   1_565  S
Fe245       O257   2.086       .  S
Fe245       O246   2.086   1_565  S
Fe245       O254   1.995       .  S
O246        C253   1.271       .  A
O247        C261   1.266       .  A
O248        C253   1.266       .  A
O249        C252   1.262       .  A
O250        C262   1.272       .  A
O251        C264   1.272       .  A
C252        O257   1.269       .  A
C252       C1032   1.465       .  S
C253       C1288   1.465       .  S
O255        C258   1.265       .  A
O256        C258   1.263       .  A
C258        C987   1.473       .  S
O259        C264   1.264       .  A
O260        C262   1.268       .  A
C261        O263   1.271       .  A
C261        C920   1.467       .  S
C262        C939   1.466       .  S
C264       C1147   1.470       .  S
Fe265       O281   2.042       .  S
Fe265       O271   2.038       .  S
Fe265       O278   2.041       .  S
Fe265       O270   2.029       .  S
Fe265       O276   1.959       .  S
Fe266       O269   2.060       .  S
Fe266       O273   2.085       .  S
Fe266       O277   2.088       .  S
Fe266       O282   2.064       .  S
Fe266       O276   1.989       .  S
Fe267       O285   2.072       .  S
Fe267       O272   2.078       .  S
Fe267       O279   2.092       .  S
Fe267       O268   2.090       .  S
Fe267       O276   1.996       .  S
O268        C275   1.269       .  A
O269        C283   1.267       .  A
O270        C275   1.261       .  A
O271        C274   1.265       .  A
O272        C284   1.274       .  A
O273        C286   1.270       .  A
C274        O279   1.273       .  A
C274        C888   1.467       .  S
C275        C907   1.465       .  S
O277        C280   1.268       .  A
O278        C280   1.262       .  A
C280        C875   1.471       .  S
O281        C286   1.264       .  A
O282        C284   1.270       .  A
C283        O285   1.270       .  A
C283       C1515   1.470       .  S
C284       C1608   1.469       .  S
C286        C856   1.474       .  S
Fe287       O303   2.037       .  S
Fe287       O293   2.029       .  S
Fe287       O300   2.027       .  S
Fe287       O292   2.037       .  S
Fe287       O298   1.961       .  S
Fe288       O291   2.058       .  S
Fe288       O295   2.074       .  S
Fe288       O299   2.091       .  S
Fe288       O304   2.044       .  S
Fe288       O298   1.988       .  S
Fe289       O307   2.082       .  S
Fe289       O294   2.086       .  S
Fe289       O301   2.097       .  S
Fe289       O290   2.091       .  S
Fe289       O298   1.994       .  S
O290        C297   1.271       .  A
O291        C305   1.269       .  A
O292        C297   1.264       .  A
O293        C296   1.262       .  A
O294        C306   1.273       .  A
O295        C308   1.266       .  A
C296        O301   1.274       .  A
C296        C824   1.465       .  S
C297        C840   1.470       .  S
O299        C302   1.269       .  A
O300        C302   1.262       .  A
C302        C904   1.473       .  S
O303        C308   1.263       .  A
O304        C306   1.266       .  A
C305        O307   1.272       .  A
C305       C1336   1.473       .  S
C306       C1432   1.468       .  S
C308        C808   1.469       .  S
Fe309       O325   2.044       .  S
Fe309       O315   2.045       .  S
Fe309       O322   2.050       .  S
Fe309       O314   2.038       .  S
Fe309       O320   1.963       .  S
Fe310       O313   2.056       .  S
Fe310       O317   2.074       .  S
Fe310       O321   2.083       .  S
Fe310       O326   2.054       .  S
Fe310       O320   1.991       .  S
Fe311       O329   2.078       .  S
Fe311       O316   2.076       .  S
Fe311       O323   2.086       .  S
Fe311       O312   2.091       .  S
Fe311       O320   1.993       .  S
O312        C319   1.271       .  A
O313        C327   1.267       .  A
O314        C319   1.264       .  A
O315        C318   1.266       .  A
O316        C328   1.273       .  A
O317        C330   1.267       .  A
C318        O323   1.271       .  A
C318        C795   1.467       .  S
C319        C872   1.469       .  S
O321        C324   1.268       .  A
O322        C324   1.265       .  A
C324        C843   1.473       .  S
O325        C330   1.264       .  A
O326        C328   1.268       .  A
C327        O329   1.271       .  A
C327       C1275   1.470       .  S
C328       C1227   1.466       .  S
C330        C779   1.470       .  S
Fe331       O347   2.040       .  S
Fe331       O337   2.048       .  S
Fe331       O344   2.057       .  S
Fe331       O336   2.039       .  S
Fe331       O342   1.944       .  S
Fe332       O335   2.056       .  S
Fe332       O339   2.096       .  S
Fe332       O343   2.076       .  S
Fe332       O348   2.062       .  S
Fe332       O342   1.959       .  S
Fe333       O351   2.087       .  S
Fe333       O338   2.078       .  S
Fe333       O345   2.088       .  S
Fe333       O334   2.105       .  S
Fe333       O342   1.973       .  S
O334        C341   1.276       .  A
O335        C349   1.267       .  A
O336        C341   1.267       .  A
O337        C340   1.265       .  A
O338        C350   1.274       .  A
O339        C352   1.275       .  A
C340        O345   1.271       .  A
C340        C747   1.470       .  S
C341        C763   1.469       .  S
O343        C346   1.264       .  A
O344        C346   1.264       .  A
C346        C731   1.470       .  S
O347        C352   1.268       .  A
O348        C350   1.269       .  A
C349        O351   1.273       .  A
C349       C1163   1.470       .  S
C350       C1019   1.469       .  S
C352        C827   1.471       .  S
Fe353       O369   2.057       .  S
Fe353       O359   2.044       .  S
Fe353       O366   2.037       .  S
Fe353       O358   2.052       .  S
Fe353       O364   1.941       .  S
Fe354       O357   2.065       .  S
Fe354       O361   2.072       .  S
Fe354       O365   2.103       .  S
Fe354       O370   2.049       .  S
Fe354       O364   1.957       .  S
Fe355       O373   2.065       .  S
Fe355       O360   2.092       .  S
Fe355       O367   2.105       .  S
Fe355       O356   2.084       .  S
Fe355       O364   1.967       .  S
O356        C363   1.269       .  A
O357        C371   1.271       .  A
O358        C363   1.265       .  A
O359        C362   1.269       .  A
O360        C372   1.274       .  A
O361        C374   1.262       .  A
C362        O367   1.278       .  A
C362        C776   1.468       .  S
C363        C728   1.470       .  S
O365        C368   1.277       .  A
O366        C368   1.269       .  A
C368        C715   1.472       .  S
O369        C374   1.263       .  A
O370        C372   1.266       .  A
C371        O373   1.271       .  A
C371       C1416   1.463       .  S
C372       C1355   1.471       .  S
C374        C696   1.472       .  S
Fe375       O391   2.055       .  S
Fe375       O381   2.039       .  S
Fe375       O388   2.033       .  S
Fe375       O380   2.045       .  S
Fe375       O386   1.942       .  S
Fe376       O379   2.072       .  S
Fe376       O383   2.073       .  S
Fe376       O387   2.105       .  S
Fe376       O392   2.048       .  S
Fe376       O386   1.960       .  S
Fe377       O395   2.073       .  S
Fe377       O382   2.086       .  S
Fe377       O389   2.096       .  S
Fe377       O378   2.085       .  S
Fe377       O386   1.973       .  S
O378        C385   1.270       .  A
O379        C393   1.271       .  A
O380        C385   1.265       .  A
O381        C384   1.267       .  A
O382        C394   1.274       .  A
O383        C396   1.265       .  A
C384        O389   1.275       .  A
C384        C811   1.465       .  S
C385        C680   1.471       .  S
O387        C390   1.275       .  A
O388        C390   1.266       .  A
C390        C667   1.475       .  S
O391        C396   1.264       .  A
O392        C394   1.267       .  A
C393        O395   1.273       .  A
C393       C1595   1.473       .  S
C394       C1496   1.465       .  S
C396        C744   1.469       .  S
Fe397       O413   2.041       .  S
Fe397       O403   2.038       .  S
Fe397       O410   2.047       .  S
Fe397       O402   2.040       .  S
Fe397       O408   1.944       .  S
Fe398       O401   2.050       .  S
Fe398       O405   2.094       .  S
Fe398       O409   2.077       .  S
Fe398       O414   2.064       .  S
Fe398       O408   1.968       .  S
Fe399       O417   2.091       .  S
Fe399       O404   2.075       .  S
Fe399       O411   2.089       .  S
Fe399       O400   2.106       .  S
Fe399       O408   1.979       .  S
O400        C407   1.275       .  A
O401        C415   1.266       .  A
O402        C407   1.266       .  A
O403        C406   1.264       .  A
O404        C416   1.274       .  A
O405        C418   1.274       .  A
C406        O411   1.272       .  A
C406        C635   1.468       .  S
C407        C651   1.470       .  S
O409        C412   1.264       .  A
O410        C412   1.262       .  A
C412        C683   1.470       .  S
O413        C418   1.268       .  A
O414        C416   1.271       .  A
C415        O417   1.274       .  A
C415        C955   1.471       .  S
C416       C1115   1.468       .  S
C418        C891   1.473       .  S
Fe419       O435   2.041       .  S
Fe419       O425   2.034       .  S
Fe419       O432   2.045       .  S
Fe419       O424   2.038       .  S
Fe419       O430   1.961       .  S
Fe420       O423   2.057       .  S
Fe420       O427   2.086       .  S
Fe420       O431   2.082       .  S
Fe420       O436   2.059       .  S
Fe420       O430   1.990       .  S
Fe421       O439   2.079       .  S
Fe421       O426   2.084       .  S
Fe421       O433   2.091       .  S
Fe421       O422   2.094       .  S
Fe421       O430   1.996       .  S
O422        C429   1.273       .  A
O423        C437   1.268       .  A
O424        C429   1.265       .  A
O425        C428   1.264       .  A
O426        C438   1.273       .  A
O427        C440   1.268       .  A
C428        O433   1.270       .  A
C428        C619   1.469       .  S
C429        C664   1.468       .  S
O431        C434   1.268       .  A
O432        C434   1.265       .  A
C434        C648   1.474       .  S
O435        C440   1.262       .  A
O436        C438   1.267       .  A
C437        O439   1.273       .  A
C437       C1000   1.469       .  S
C438       C1179   1.474       .  S
C440        C600   1.471       .  S
Fe441       O457   2.035       .  S
Fe441       O447   2.035       .  S
Fe441       O454   2.046       .  S
Fe441       O446   2.041       .  S
Fe441       O452   1.954       .  S
Fe442       O445   2.046       .  S
Fe442       O449   2.095       .  S
Fe442       O453   2.070       .  S
Fe442       O458   2.057       .  S
Fe442       O452   1.979       .  S
Fe443       O461   2.084       .  S
Fe443       O448   2.074       .  S
Fe443       O455   2.085       .  S
Fe443       O444   2.094       .  S
Fe443       O452   1.987       .  S
O444        C451   1.275       .  A
O445        C459   1.268       .  A
O446        C451   1.267       .  A
O447        C450   1.262       .  A
O448        C460   1.270       .  A
O449        C462   1.272       .  A
C450        O455   1.268       .  A
C450        C603   1.468       .  S
C451        C587   1.467       .  S
O453        C456   1.265       .  A
O454        C456   1.263       .  A
C456        C555   1.469       .  S
O457        C462   1.264       .  A
O458        C460   1.268       .  A
C459        O461   1.273       .  A
C459       C1096   1.467       .  S
C460        C968   1.469       .  S
C462        C568   1.473       .  S
Fe463       O479   2.039       .  S
Fe463       O469   2.042       .  S
Fe463       O476   2.047       .  S
Fe463       O468   2.039       .  S
Fe463       O474   1.963       .  S
Fe464       O467   2.057       .  S
Fe464       O471   2.079       .  S
Fe464       O475   2.080       .  S
Fe464       O480   2.058       .  S
Fe464       O474   1.990       .  S
Fe465       O483   2.078       .  S
Fe465       O470   2.077       .  S
Fe465       O477   2.086       .  S
Fe465       O466   2.086       .  S
Fe465       O474   1.991       .  S
O466        C473   1.272       .  A
O467        C481   1.269       .  A
O468        C473   1.265       .  A
O469        C472   1.263       .  A
O470        C482   1.271       .  A
O471        C484   1.267       .  A
C472        O477   1.270       .  A
C472        C571   1.465       .  S
C473        C712   1.463       .  S
O475        C478   1.269       .  A
O476        C478   1.266       .  A
C478        C760   1.473       .  S
O479        C484   1.262       .  A
O480        C482   1.266       .  A
C481        O483   1.274       .  A
C481        C923   1.467       .  S
C482       C1067   1.473       .  S
C484        C616   1.468       .  S
Fe485       O501   2.043       .  S
Fe485       O491   2.041       .  S
Fe485       O498   2.060       .  S
Fe485       O490   2.045       .  S
Fe485       O496   1.941       .  S
Fe486       O489   2.048       .  S
Fe486       O493   2.103       .  S
Fe486       O497   2.073       .  S
Fe486       O502   2.061       .  S
Fe486       O496   1.957       .  S
Fe487       O505   2.090       .  S
Fe487       O492   2.069       .  S
Fe487       O499   2.088       .  S
Fe487       O488   2.095       .  S
Fe487       O496   1.971       .  S
O488        C495   1.277       .  A
O489        C503   1.267       .  A
O490        C495   1.270       .  A
O491        C494   1.263       .  A
O492        C504   1.271       .  A
O493        C506   1.277       .  A
C494        O499   1.270       .  A
C494        C699   1.469       .  S
C495        C552   1.465       .  S
O497        C500   1.262       .  A
O498        C500   1.265       .  A
C500        C539   1.474       .  S
O501        C506   1.267       .  A
O502        C504   1.269       .  A
C503        O505   1.274       .  A
C503       C1048   1.467       .  S
C504        C936   1.465       .  S
C506        C792   1.472       .  S
Fe507       O523   2.060       .  S
Fe507       O513   2.042       .  S
Fe507       O520   2.038       .  S
Fe507       O512   2.043       .  S
Fe507       O518   1.937       .  S
Fe508       O511   2.056       .  S
Fe508       O515   2.067       .  S
Fe508       O519   2.096       .  S
Fe508       O524   2.047       .  S
Fe508       O518   1.956       .  S
Fe509       O527   2.072       .  S
Fe509       O514   2.097       .  S
Fe509       O521   2.109       .  S
Fe509       O510   2.090       .  S
Fe509       O518   1.967       .  S
O510        C517   1.271       .  A
O511        C525   1.269       .  A
O512        C517   1.264       .  A
O513        C516   1.269       .  A
O514        C526   1.276       .  A
O515        C528   1.261       .  A
C516        O521   1.279       .  A
C516        C859   1.470       .  S
C517        C536   1.471       .  S
O519        C522   1.276       .  A
O520        C522   1.267       .  A
C522        C584   1.467       .  S
O523        C528   1.264       .  A
O524        C526   1.267       .  A
C525        O527   1.272       .  A
C525       C1211   1.464       .  S
C526       C1259   1.471       .  S
C528        C632   1.470       .  S
C529        C534   1.380       .  A
C529        C530   1.392       .  A
C529        O535   1.306       .  A
C530        C531   1.390       .  A
C530        H541   1.083       .  S
C531        C540   1.349       .  A
C531        C532   1.379       .  A
C532        C533   1.416       .  A
C532        O538   1.328       .  A
C533        C534   1.414       .  A
C533        H542   1.082       .  S
C534        C537   1.379       .  A
O535        C536   1.326       .  A
C536        C537   1.399       .  A
C537        H543   1.082       .  S
O538        C539   1.338       .  A
C539        C540   1.385       .  A
C540        H544   1.083       .  S
C545        C550   1.381       .  A
C545        C546   1.395       .  A
C545        O551   1.312       .  A
C546        C547   1.394       .  A
C546        H557   1.083       .  S
C547        C556   1.350       .  A
C547        C548   1.379       .  A
C548        C549   1.408       .  A
C548        O554   1.324       .  A
C549        C550   1.408       .  A
C549        H558   1.082       .  S
C550        C553   1.366       .  A
O551        C552   1.327       .  A
C552        C553   1.395       .  A
C553        H559   1.082       .  S
O554        C555   1.334       .  A
C555        C556   1.389       .  A
C556        H560   1.083       .  S
C561        C566   1.380       .  A
C561        C562   1.410       .  A
C561        O567   1.327       .  A
C562        C563   1.411       .  A
C562        H573   1.082       .  S
C563        C572   1.369       .  A
C563        C564   1.381       .  A
C564        C565   1.396       .  A
C564        O570   1.314       .  A
C565        C566   1.395       .  A
C565        H574   1.083       .  S
C566        C569   1.351       .  A
O567        C568   1.335       .  A
C568        C569   1.389       .  A
C569        H575   1.083       .  S
O570        C571   1.327       .  A
C571        C572   1.395       .  A
C572        H576   1.082       .  S
C577        C582   1.380       .  A
C577        C578   1.397       .  A
C577        O583   1.313       .  A
C578        C579   1.397       .  A
C578        H589   1.083       .  S
C579        C588   1.354       .  A
C579        C580   1.381       .  A
C580        C581   1.407       .  A
C580        O586   1.322       .  A
C581        C582   1.406       .  A
C581        H590   1.082       .  S
C582        C585   1.367       .  A
O583        C584   1.328       .  A
C584        C585   1.393       .  A
C585        H591   1.082       .  S
O586        C587   1.332       .  A
C587        C588   1.389       .  A
C588        H592   1.083       .  S
C593        C598   1.380       .  A
C593        C594   1.395       .  A
C593        O599   1.311       .  A
C594        C595   1.394       .  A
C594        H605   1.083       .  S
C595        C604   1.350       .  A
C595        C596   1.380       .  A
C596        C597   1.412       .  A
C596        O602   1.327       .  A
C597        C598   1.412       .  A
C597        H606   1.082       .  S
C598        C601   1.373       .  A
O599        C600   1.327       .  A
C600        C601   1.397       .  A
C601        H607   1.082       .  S
O602        C603   1.335       .  A
C603        C604   1.387       .  A
C604        H608   1.083       .  S
C609        C614   1.380       .  A
C609        C610   1.394       .  A
C609        O615   1.310       .  A
C610        C611   1.394       .  A
C610        H621   1.083       .  S
C611        C620   1.351       .  A
C611        C612   1.380       .  A
C612        C613   1.412       .  A
C612        O618   1.325       .  A
C613        C614   1.410       .  A
C613        H622   1.082       .  S
C614        C617   1.372       .  A
O615        C616   1.327       .  A
C616        C617   1.396       .  A
C617        H623   1.082       .  S
O618        C619   1.335       .  A
C619        C620   1.388       .  A
C620        H624   1.083       .  S
C625        C630   1.379       .  A
C625        C626   1.414       .  A
C625        O631   1.325       .  A
C626        C627   1.412       .  A
C626        H637   1.082       .  S
C627        C636   1.377       .  A
C627        C628   1.380       .  A
C628        C629   1.392       .  A
C628        O634   1.306       .  A
C629        C630   1.390       .  A
C629        H638   1.083       .  S
C630        C633   1.350       .  A
O631        C632   1.336       .  A
C632        C633   1.385       .  A
C633        H639   1.083       .  S
O634        C635   1.326       .  A
C635        C636   1.397       .  A
C636        H640   1.082       .  S
C641        C646   1.379       .  A
C641        C642   1.412       .  A
C641        O647   1.327       .  A
C642        C643   1.412       .  A
C642        H653   1.082       .  S
C643        C652   1.372       .  A
C643        C644   1.380       .  A
C644        C645   1.395       .  A
C644        O650   1.311       .  A
C645        C646   1.394       .  A
C645        H654   1.083       .  S
C646        C649   1.350       .  A
O647        C648   1.336       .  A
C648        C649   1.388       .  A
C649        H655   1.083       .  S
O650        C651   1.327       .  A
C651        C652   1.397       .  A
C652        H656   1.082       .  S
C657        C662   1.380       .  A
C657        C658   1.394       .  A
C657        O663   1.310       .  A
C658        C659   1.393       .  A
C658        H669   1.083       .  S
C659        C668   1.350       .  A
C659        C660   1.379       .  A
C660        C661   1.412       .  A
C660        O666   1.327       .  A
C661        C662   1.412       .  A
C661        H670   1.082       .  S
C662        C665   1.373       .  A
O663        C664   1.327       .  A
C664        C665   1.397       .  A
C665        H671   1.082       .  S
O666        C667   1.336       .  A
C667        C668   1.388       .  A
C668        H672   1.083       .  S
C673        C678   1.380       .  A
C673        C674   1.415       .  A
C673        O679   1.329       .  A
C674        C675   1.414       .  A
C674        H685   1.082       .  S
C675        C684   1.375       .  A
C675        C676   1.380       .  A
C676        C677   1.391       .  A
C676        O682   1.309       .  A
C677        C678   1.391       .  A
C677        H686   1.083       .  S
C678        C681   1.346       .  A
O679        C680   1.337       .  A
C680        C681   1.386       .  A
C681        H687   1.083       .  S
O682        C683   1.325       .  A
C683        C684   1.399       .  A
C684        H688   1.082       .  S
C689        C694   1.379       .  A
C689        C690   1.413       .  A
C689        O695   1.326       .  A
C690        C691   1.412       .  A
C690        H701   1.082       .  S
C691        C700   1.376       .  A
C691        C692   1.380       .  A
C692        C693   1.393       .  A
C692        O698   1.308       .  A
C693        C694   1.392       .  A
C693        H702   1.083       .  S
C694        C697   1.350       .  A
O695        C696   1.336       .  A
C696        C697   1.387       .  A
C697        H703   1.083       .  S
O698        C699   1.327       .  A
C699        C700   1.396       .  A
C700        H704   1.082       .  S
C705        C710   1.381       .  A
C705        C706   1.395       .  A
C705        O711   1.311       .  A
C706        C707   1.394       .  A
C706        H717   1.083       .  S
C707        C716   1.351       .  A
C707        C708   1.379       .  A
C708        C709   1.409       .  A
C708        O714   1.325       .  A
C709        C710   1.410       .  A
C709        H718   1.082       .  S
C710        C713   1.370       .  A
O711        C712   1.327       .  A
C712        C713   1.394       .  A
C713        H719   1.082       .  S
O714        C715   1.334       .  A
C715        C716   1.388       .  A
C716        H720   1.083       .  S
C721        C726   1.380       .  A
C721        C722   1.395       .  A
C721        O727   1.309       .  A
C722        C723   1.393       .  A
C722        H733   1.083       .  S
C723        C732   1.353       .  A
C723        C724   1.380       .  A
C724        C725   1.413       .  A
C724        O730   1.326       .  A
C725        C726   1.411       .  A
C725        H734   1.082       .  S
C726        C729   1.376       .  A
O727        C728   1.327       .  A
C728        C729   1.396       .  A
C729        H735   1.082       .  S
O730        C731   1.336       .  A
C731        C732   1.386       .  A
C732        H736   1.083       .  S
C737        C742   1.380       .  A
C737        C738   1.412       .  A
C737        O743   1.324       .  A
C738        C739   1.410       .  A
C738        H749   1.082       .  S
C739        C748   1.374       .  A
C739        C740   1.380       .  A
C740        C741   1.395       .  A
C740        O746   1.309       .  A
C741        C742   1.393       .  A
C741        H750   1.083       .  S
C742        C745   1.352       .  A
O743        C744   1.335       .  A
C744        C745   1.387       .  A
C745        H751   1.083       .  S
O746        C747   1.328       .  A
C747        C748   1.396       .  A
C748        H752   1.082       .  S
C753        C758   1.379       .  A
C753        C754   1.410       .  A
C753        O759   1.325       .  A
C754        C755   1.410       .  A
C754        H765   1.082       .  S
C755        C764   1.370       .  A
C755        C756   1.380       .  A
C756        C757   1.396       .  A
C756        O762   1.312       .  A
C757        C758   1.395       .  A
C757        H766   1.083       .  S
C758        C761   1.352       .  A
O759        C760   1.335       .  A
C760        C761   1.390       .  A
C761        H767   1.083       .  S
O762        C763   1.328       .  A
C763        C764   1.396       .  A
C764        H768   1.082       .  S
C769        C774   1.381       .  A
C769        C770   1.397       .  A
C769        O775   1.314       .  A
C770        C771   1.396       .  A
C770        H781   1.083       .  S
C771        C780   1.352       .  A
C771        C772   1.380       .  A
C772        C773   1.408       .  A
C772        O778   1.324       .  A
C773        C774   1.408       .  A
C773        H782   1.082       .  S
C774        C777   1.367       .  A
O775        C776   1.328       .  A
C776        C777   1.395       .  A
C777        H783   1.082       .  S
O778        C779   1.334       .  A
C779        C780   1.389       .  A
C780        H784   1.083       .  S
C785        C790   1.380       .  A
C785        C786   1.399       .  A
C785        O791   1.315       .  A
C786        C787   1.398       .  A
C786        H797   1.083       .  S
C787        C796   1.356       .  A
C787        C788   1.380       .  A
C788        C789   1.409       .  A
C788        O794   1.323       .  A
C789        C790   1.408       .  A
C789        H798   1.082       .  S
C790        C793   1.369       .  A
O791        C792   1.329       .  A
C792        C793   1.394       .  A
C793        H799   1.082       .  S
O794        C795   1.333       .  A
C795        C796   1.389       .  A
C796        H800   1.083       .  S
C801        C806   1.379       .  A
C801        C802   1.408       .  A
C801        O807   1.324       .  A
C802        C803   1.409       .  A
C802        H813   1.082       .  S
C803        C812   1.368       .  A
C803        C804   1.381       .  A
C804        C805   1.394       .  A
C804        O810   1.311       .  A
C805        C806   1.394       .  A
C805        H814   1.083       .  S
C806        C809   1.349       .  A
O807        C808   1.334       .  A
C808        C809   1.389       .  A
C809        H815   1.083       .  S
O810        C811   1.327       .  A
C811        C812   1.395       .  A
C812        H816   1.082       .  S
C817        C822   1.380       .  A
C817        C818   1.396       .  A
C817        O823   1.311       .  A
C818        C819   1.395       .  A
C818        H829   1.083       .  S
C819        C828   1.353       .  A
C819        C820   1.379       .  A
C820        C821   1.409       .  A
C820        O826   1.324       .  A
C821        C822   1.408       .  A
C821        H830   1.082       .  S
C822        C825   1.370       .  A
O823        C824   1.328       .  A
C824        C825   1.394       .  A
C825        H831   1.082       .  S
O826        C827   1.334       .  A
C827        C828   1.389       .  A
C828        H832   1.083       .  S
C833        C838   1.380       .  A
C833        C834   1.412       .  A
C833        O839   1.326       .  A
C834        C835   1.411       .  A
C834        H845   1.082       .  S
C835        C844   1.372       .  A
C835        C836   1.380       .  A
C836        C837   1.397       .  A
C836        O842   1.313       .  A
C837        C838   1.396       .  A
C837        H846   1.083       .  S
C838        C841   1.353       .  A
O839        C840   1.335       .  A
C840        C841   1.389       .  A
C841        H847   1.083       .  S
O842        C843   1.328       .  A
C843        C844   1.397       .  A
C844        H848   1.082       .  S
C849        C854   1.379       .  A
C849        C850   1.410       .  A
C849        O855   1.326       .  A
C850        C851   1.410       .  A
C850        H861   1.082       .  S
C851        C860   1.369       .  A
C851        C852   1.380       .  A
C852        C853   1.397       .  A
C852        O858   1.313       .  A
C853        C854   1.396       .  A
C853        H862   1.083       .  S
C854        C857   1.352       .  A
O855        C856   1.334       .  A
C856        C857   1.390       .  A
C857        H863   1.083       .  S
O858        C859   1.328       .  A
C859        C860   1.396       .  A
C860        H864   1.082       .  S
C865        C870   1.379       .  A
C865        C866   1.413       .  A
C865        O871   1.326       .  A
C866        C867   1.412       .  A
C866        H877   1.082       .  S
C867        C876   1.374       .  A
C867        C868   1.380       .  A
C868        C869   1.395       .  A
C868        O874   1.311       .  A
C869        C870   1.394       .  A
C869        H878   1.083       .  S
C870        C873   1.352       .  A
O871        C872   1.336       .  A
C872        C873   1.387       .  A
C873        H879   1.083       .  S
O874        C875   1.327       .  A
C875        C876   1.397       .  A
C876        H880   1.082       .  S
C881        C886   1.380       .  A
C881        C882   1.396       .  A
C881        O887   1.310       .  A
C882        C883   1.394       .  A
C882        H893   1.083       .  S
C883        C892   1.353       .  A
C883        C884   1.379       .  A
C884        C885   1.410       .  A
C884        O890   1.325       .  A
C885        C886   1.410       .  A
C885        H894   1.082       .  S
C886        C889   1.372       .  A
O887        C888   1.327       .  A
C888        C889   1.395       .  A
C889        H895   1.082       .  S
O890        C891   1.335       .  A
C891        C892   1.389       .  A
C892        H896   1.083       .  S
C897        C902   1.379       .  A
C897        C898   1.412       .  A
C897        O903   1.328       .  A
C898        C899   1.413       .  A
C898        H909   1.082       .  S
C899        C908   1.373       .  A
C899        C900   1.381       .  A
C900        C901   1.392       .  A
C900        O906   1.308       .  A
C901        C902   1.391       .  A
C901        H910   1.083       .  S
C902        C905   1.346       .  A
O903        C904   1.336       .  A
C904        C905   1.388       .  A
C905        H911   1.083       .  S
O906        C907   1.325       .  A
C907        C908   1.397       .  A
C908        H912   1.082       .  S
C913        C918   1.380       .  A
C913        C914   1.401       .  A
C913        O919   1.315       .  A
C914        C915   1.399       .  A
C914        H925   1.082       .  S
C915        C924   1.361       .  A
C915        C916   1.380       .  A
C916        C917   1.405       .  A
C916        O922   1.318       .  A
C917        C918   1.403       .  A
C917        H926   1.082       .  S
C918        C921   1.365       .  A
O919        C920   1.329       .  A
C920        C921   1.392       .  A
C921        H927   1.082       .  S
O922        C923   1.332       .  A
C923        C924   1.389       .  A
C924        H928   1.082       .  S
C929        C934   1.381       .  A
C929        C930   1.402       .  A
C929        O935   1.315       .  A
C930        C931   1.400       .  A
C930        H941   1.082       .  S
C931        C940   1.362       .  A
C931        C932   1.381       .  A
C932        C933   1.404       .  A
C932        O938   1.317       .  A
C933        C934   1.402       .  A
C933        H942   1.082       .  S
C934        C937   1.364       .  A
O935        C936   1.330       .  A
C936        C937   1.390       .  A
C937        H943   1.082       .  S
O938        C939   1.331       .  A
C939        C940   1.389       .  A
C940        H944   1.082       .  S
C945        C950   1.380       .  A
C945        C946   1.404       .  A
C945        O951   1.316       .  A
C946        C947   1.401       .  A
C946        H957   1.082       .  S
C947        C956   1.364       .  A
C947        C948   1.380       .  A
C948        C949   1.406       .  A
C948        O954   1.318       .  A
C949        C950   1.404       .  A
C949        H958   1.082       .  S
C950        C953   1.367       .  A
O951        C952   1.331       .  A
C952        C953   1.392       .  A
C953        H959   1.082       .  S
O954        C955   1.332       .  A
C955        C956   1.391       .  A
C956        H960   1.082       .  S
C961        C966   1.381       .  A
C961        C962   1.401       .  A
C961        O967   1.319       .  A
C962        C963   1.401       .  A
C962        H973   1.082       .  S
C963        C972   1.356       .  A
C963        C964   1.381       .  A
C964        C965   1.401       .  A
C964        O970   1.320       .  A
C965        C966   1.402       .  A
C965        H974   1.082       .  S
C966        C969   1.358       .  A
O967        C968   1.330       .  A
C968        C969   1.391       .  A
C969        H975   1.083       .  S
O970        C971   1.329       .  A
C971        C972   1.391       .  A
C972        H976   1.083       .  S
C977        C982   1.380       .  A
C977        C978   1.395       .  A
C977        O983   1.308       .  A
C978        C979   1.392       .  A
C978        H989   1.083       .  S
C979        C988   1.352       .  A
C979        C980   1.379       .  A
C980        C981   1.414       .  A
C980        O986   1.326       .  A
C981        C982   1.412       .  A
C981        H990   1.082       .  S
C982        C985   1.376       .  A
O983        C984   1.327       .  A
C984        C985   1.397       .  A
C985        H991   1.082       .  S
O986        C987   1.336       .  A
C987        C988   1.387       .  A
C988        H992   1.083       .  S
C993        C998   1.380       .  A
C993        C994   1.405       .  A
C993        O999   1.318       .  A
C994        C995   1.403       .  A
C994       H1005   1.082       .  S
C995       C1004   1.366       .  A
C995        C996   1.380       .  A
C996        C997   1.403       .  A
C996       O1002   1.316       .  A
C997        C998   1.400       .  A
C997       H1006   1.082       .  S
C998       C1001   1.362       .  A
O999       C1000   1.332       .  A
C1000      C1001   1.390       .  A
C1001      H1007   1.082       .  S
O1002      C1003   1.331       .  A
C1003      C1004   1.392       .  A
C1004      H1008   1.082       .  S
C1009      C1014   1.380       .  A
C1009      C1010   1.402       .  A
C1009      O1015   1.315       .  A
C1010      C1011   1.400       .  A
C1010      H1021   1.082       .  S
C1011      C1020   1.363       .  A
C1011      C1012   1.380       .  A
C1012      C1013   1.406       .  A
C1012      O1018   1.317       .  A
C1013      C1014   1.404       .  A
C1013      H1022   1.082       .  S
C1014      C1017   1.367       .  A
O1015      C1016   1.330       .  A
C1016      C1017   1.392       .  A
C1017      H1023   1.082       .  S
O1018      C1019   1.332       .  A
C1019      C1020   1.389       .  A
C1020      H1024   1.082       .  S
C1025      C1030   1.381       .  A
C1025      C1026   1.393       .  A
C1025      O1031   1.308       .  A
C1026      C1027   1.391       .  A
C1026      H1037   1.083       .  S
C1027      C1036   1.349       .  A
C1027      C1028   1.379       .  A
C1028      C1029   1.412       .  A
C1028      O1034   1.326       .  A
C1029      C1030   1.411       .  A
C1029      H1038   1.082       .  S
C1030      C1033   1.373       .  A
O1031      C1032   1.326       .  A
C1032      C1033   1.396       .  A
C1033      H1039   1.082       .  S
O1034      C1035   1.335       .  A
C1035      C1036   1.387       .  A
C1036      H1040   1.083       .  S
C1041      C1046   1.380       .  A
C1041      C1042   1.401       .  A
C1041      O1047   1.314       .  A
C1042      C1043   1.399       .  A
C1042      H1053   1.082       .  S
C1043      C1052   1.362       .  A
C1043      C1044   1.380       .  A
C1044      C1045   1.406       .  A
C1044      O1050   1.317       .  A
C1045      C1046   1.404       .  A
C1045      H1054   1.082       .  S
C1046      C1049   1.367       .  A
O1047      C1048   1.330       .  A
C1048      C1049   1.392       .  A
C1049      H1055   1.082       .  S
O1050      C1051   1.332       .  A
C1051      C1052   1.389       .  A
C1052      H1056   1.082       .  S
C1057      C1062   1.380       .  A
C1057      C1058   1.404       .  A
C1057      O1063   1.318       .  A
C1058      C1059   1.402       .  A
C1058      H1069   1.082       .  S
C1059      C1068   1.363       .  A
C1059      C1060   1.380       .  A
C1060      C1061   1.405       .  A
C1060      O1066   1.319       .  A
C1061      C1062   1.404       .  A
C1061      H1070   1.082       .  S
C1062      C1065   1.365       .  A
O1063      C1064   1.331       .  A
C1064      C1065   1.392       .  A
C1065      H1071   1.082       .  S
O1066      C1067   1.332       .  A
C1067      C1068   1.391       .  A
C1068      H1072   1.082       .  S
C1073      C1078   1.379       .  A
C1073      C1074   1.417       .  A
C1073      O1079   1.330       .  A
C1074      C1075   1.416       .  A
C1074      H1085   1.082       .  S
C1075      C1084   1.380       .  A
C1075      C1076   1.379       .  A
C1076      C1077   1.393       .  A
C1076      O1082   1.308       .  A
C1077      C1078   1.391       .  A
C1077      H1086   1.083       .  S
C1078      C1081   1.350       .  A
O1079      C1080   1.339       .  A
C1080      C1081   1.387       .  A
C1081      H1087   1.083       .  S
O1082      C1083   1.327       .  A
C1083      C1084   1.400       .  A
C1084      H1088   1.082       .  S
C1089      C1094   1.381       .  A
C1089      C1090   1.401       .  A
C1089      O1095   1.320       .  A
C1090      C1091   1.402       .  A
C1090      H1101   1.082       .  S
C1091      C1100   1.357       .  A
C1091      C1092   1.382       .  A
C1092      C1093   1.400       .  A
C1092      O1098   1.319       .  A
C1093      C1094   1.401       .  A
C1093      H1102   1.082       .  S
C1094      C1097   1.356       .  A
O1095      C1096   1.330       .  A
C1096      C1097   1.391       .  A
C1097      H1103   1.083       .  S
O1098      C1099   1.329       .  A
C1099      C1100   1.391       .  A
C1100      H1104   1.083       .  S
C1105      C1110   1.380       .  A
C1105      C1106   1.403       .  A
C1105      O1111   1.316       .  A
C1106      C1107   1.400       .  A
C1106      H1117   1.082       .  S
C1107      C1116   1.363       .  A
C1107      C1108   1.380       .  A
C1108      C1109   1.405       .  A
C1108      O1114   1.317       .  A
C1109      C1110   1.403       .  A
C1109      H1118   1.082       .  S
C1110      C1113   1.366       .  A
O1111      C1112   1.331       .  A
C1112      C1113   1.392       .  A
C1113      H1119   1.082       .  S
O1114      C1115   1.332       .  A
C1115      C1116   1.390       .  A
C1116      H1120   1.082       .  S
C1121      C1126   1.379       .  A
C1121      C1122   1.414       .  A
C1121      O1127   1.326       .  A
C1122      C1123   1.412       .  A
C1122      H1133   1.082       .  S
C1123      C1132   1.377       .  A
C1123      C1124   1.379       .  A
C1124      C1125   1.397       .  A
C1124      O1130   1.310       .  A
C1125      C1126   1.394       .  A
C1125      H1134   1.083       .  S
C1126      C1129   1.354       .  A
O1127      C1128   1.336       .  A
C1128      C1129   1.388       .  A
C1129      H1135   1.083       .  S
O1130      C1131   1.329       .  A
C1131      C1132   1.397       .  A
C1132      H1136   1.082       .  S
C1137      C1142   1.380       .  A
C1137      C1138   1.412       .  A
C1137      O1143   1.324       .  A
C1138      C1139   1.410       .  A
C1138      H1149   1.082       .  S
C1139      C1148   1.373       .  A
C1139      C1140   1.380       .  A
C1140      C1141   1.396       .  A
C1140      O1146   1.310       .  A
C1141      C1142   1.394       .  A
C1141      H1150   1.083       .  S
C1142      C1145   1.354       .  A
O1143      C1144   1.335       .  A
C1144      C1145   1.388       .  A
C1145      H1151   1.083       .  S
O1146      C1147   1.328       .  A
C1147      C1148   1.396       .  A
C1148      H1152   1.082       .  S
C1153      C1158   1.380       .  A
C1153      C1154   1.404       .  A
C1153      O1159   1.317       .  A
C1154      C1155   1.402       .  A
C1154      H1165   1.082       .  S
C1155      C1164   1.364       .  A
C1155      C1156   1.380       .  A
C1156      C1157   1.404       .  A
C1156      O1162   1.317       .  A
C1157      C1158   1.402       .  A
C1157      H1166   1.082       .  S
C1158      C1161   1.364       .  A
O1159      C1160   1.331       .  A
C1160      C1161   1.391       .  A
C1161      H1167   1.082       .  S
O1162      C1163   1.331       .  A
C1163      C1164   1.391       .  A
C1164      H1168   1.082       .  S
C1169      C1174   1.380       .  A
C1169      C1170   1.406       .  A
C1169      O1175   1.318       .  A
C1170      C1171   1.404       .  A
C1170      H1181   1.082       .  S
C1171      C1180   1.367       .  A
C1171      C1172   1.380       .  A
C1172      C1173   1.406       .  A
C1172      O1178   1.318       .  A
C1173      C1174   1.403       .  A
C1173      H1182   1.082       .  S
C1174      C1177   1.367       .  A
O1175      C1176   1.333       .  A
C1176      C1177   1.392       .  A
C1177      H1183   1.082       .  S
O1178      C1179   1.332       .  A
C1179      C1180   1.393       .  A
C1180      H1184   1.082       .  S
C1185      C1190   1.380       .  A
C1185      C1186   1.398       .  A
C1185      O1191   1.314       .  A
C1186      C1187   1.398       .  A
C1186      H1197   1.083       .  S
C1187      C1196   1.354       .  A
C1187      C1188   1.380       .  A
C1188      C1189   1.410       .  A
C1188      O1194   1.325       .  A
C1189      C1190   1.409       .  A
C1189      H1198   1.082       .  S
C1190      C1193   1.370       .  A
O1191      C1192   1.329       .  A
C1192      C1193   1.395       .  A
C1193      H1199   1.082       .  S
O1194      C1195   1.334       .  A
C1195      C1196   1.389       .  A
C1196      H1200   1.083       .  S
C1201      C1206   1.381       .  A
C1201      C1202   1.402       .  A
C1201      O1207   1.320       .  A
C1202      C1203   1.403       .  A
C1202      H1213   1.082       .  S
C1203      C1212   1.358       .  A
C1203      C1204   1.382       .  A
C1204      C1205   1.399       .  A
C1204      O1210   1.318       .  A
C1205      C1206   1.400       .  A
C1205      H1214   1.082       .  S
C1206      C1209   1.355       .  A
O1207      C1208   1.330       .  A
C1208      C1209   1.390       .  A
C1209      H1215   1.083       .  S
O1210      C1211   1.328       .  A
C1211      C1212   1.392       .  A
C1212      H1216   1.083       .  S
C1217      C1222   1.381       .  A
C1217      C1218   1.403       .  A
C1217      O1223   1.317       .  A
C1218      C1219   1.401       .  A
C1218      H1229   1.082       .  S
C1219      C1228   1.362       .  A
C1219      C1220   1.381       .  A
C1220      C1221   1.401       .  A
C1220      O1226   1.315       .  A
C1221      C1222   1.400       .  A
C1221      H1230   1.082       .  S
C1222      C1225   1.360       .  A
O1223      C1224   1.330       .  A
C1224      C1225   1.389       .  A
C1225      H1231   1.083       .  S
O1226      C1227   1.330       .  A
C1227      C1228   1.391       .  A
C1228      H1232   1.082       .  S
C1233      C1238   1.380       .  A
C1233      C1234   1.389       .  A
C1233      O1239   1.305       .  A
C1234      C1235   1.389       .  A
C1234      H1245   1.083       .  S
C1235      C1244   1.345       .  A
C1235      C1236   1.380       .  A
C1236      C1237   1.411       .  A
C1236      O1242   1.324       .  A
C1237      C1238   1.410       .  A
C1237      H1246   1.082       .  S
C1238      C1241   1.372       .  A
O1239      C1240   1.324       .  A
C1240      C1241   1.396       .  A
C1241      H1247   1.082       .  S
O1242      C1243   1.334       .  A
C1243      C1244   1.385       .  A
C1244      H1248   1.083       .  S
C1249      C1254   1.380       .  A
C1249      C1250   1.404       .  A
C1249      O1255   1.317       .  A
C1250      C1251   1.402       .  A
C1250      H1261   1.082       .  S
C1251      C1260   1.365       .  A
C1251      C1252   1.380       .  A
C1252      C1253   1.405       .  A
C1252      O1258   1.317       .  A
C1253      C1254   1.403       .  A
C1253      H1262   1.082       .  S
C1254      C1257   1.365       .  A
O1255      C1256   1.331       .  A
C1256      C1257   1.392       .  A
C1257      H1263   1.082       .  S
O1258      C1259   1.332       .  A
C1259      C1260   1.391       .  A
C1260      H1264   1.082       .  S
C1265      C1270   1.381       .  A
C1265      C1266   1.404       .  A
C1265      O1271   1.322       .  A
C1266      C1267   1.405       .  A
C1266      H1277   1.082       .  S
C1267      C1276   1.361       .  A
C1267      C1268   1.381       .  A
C1268      C1269   1.401       .  A
C1268      O1274   1.319       .  A
C1269      C1270   1.401       .  A
C1269      H1278   1.082       .  S
C1270      C1273   1.357       .  A
O1271      C1272   1.331       .  A
C1272      C1273   1.392       .  A
C1273      H1279   1.083       .  S
O1274      C1275   1.330       .  A
C1275      C1276   1.393       .  A
C1276      H1280   1.083       .  S
C1281      C1286   1.380       .  A
C1281      C1282   1.410       .  A
C1281      O1287   1.323       .  A
C1282      C1283   1.408       .  A
C1282      H1293   1.082       .  S
C1283      C1292   1.371       .  A
C1283      C1284   1.380       .  A
C1284      C1285   1.393       .  A
C1284      O1290   1.308       .  A
C1285      C1286   1.392       .  A
C1285      H1294   1.083       .  S
C1286      C1289   1.350       .  A
O1287      C1288   1.334       .  A
C1288      C1289   1.387       .  A
C1289      H1295   1.083       .  S
O1290      C1291   1.326       .  A
C1291      C1292   1.395       .  A
C1292      H1296   1.082       .  S
C1297      C1302   1.380       .  A
C1297      C1298   1.411       .  A
C1297      O1303   1.324       .  A
C1298      C1299   1.409       .  A
C1298      H1309   1.082       .  S
C1299      C1308   1.372       .  A
C1299      C1300   1.380       .  A
C1300      C1301   1.397       .  A
C1300      O1306   1.311       .  A
C1301      C1302   1.396       .  A
C1301      H1310   1.083       .  S
C1302      C1305   1.355       .  A
O1303      C1304   1.335       .  A
C1304      C1305   1.390       .  A
C1305      H1311   1.083       .  S
O1306      C1307   1.328       .  A
C1307      C1308   1.395       .  A
C1308      H1312   1.082       .  S
C1313      C1318   1.380       .  A
C1313      C1314   1.395       .  A
C1313      O1319   1.312       .  A
C1314      C1315   1.395       .  A
C1314      H1325   1.083       .  S
C1315      C1324   1.351       .  A
C1315      C1316   1.379       .  A
C1316      C1317   1.412       .  A
C1316      O1322   1.327       .  A
C1317      C1318   1.411       .  A
C1317      H1326   1.082       .  S
C1318      C1321   1.372       .  A
O1319      C1320   1.327       .  A
C1320      C1321   1.397       .  A
C1321      H1327   1.082       .  S
O1322      C1323   1.336       .  A
C1323      C1324   1.389       .  A
C1324      H1328   1.083       .  S
C1329      C1334   1.380       .  A
C1329      C1330   1.404       .  A
C1329      O1335   1.322       .  A
C1330      C1331   1.404       .  A
C1330      H1341   1.082       .  S
C1331      C1340   1.361       .  A
C1331      C1332   1.381       .  A
C1332      C1333   1.402       .  A
C1332      O1338   1.320       .  A
C1333      C1334   1.403       .  A
C1333      H1342   1.082       .  S
C1334      C1337   1.359       .  A
O1335      C1336   1.332       .  A
C1336      C1337   1.392       .  A
C1337      H1343   1.083       .  S
O1338      C1339   1.330       .  A
C1339      C1340   1.393       .  A
C1340      H1344   1.083       .  S
C1345      C1350   1.380       .  A
C1345      C1346   1.406       .  A
C1345      O1351   1.318       .  A
C1346      C1347   1.404       .  A
C1346      H1357   1.082       .  S
C1347      C1356   1.366       .  A
C1347      C1348   1.380       .  A
C1348      C1349   1.403       .  A
C1348      O1354   1.316       .  A
C1349      C1350   1.401       .  A
C1349      H1358   1.082       .  S
C1350      C1353   1.364       .  A
O1351      C1352   1.333       .  A
C1352      C1353   1.391       .  A
C1353      H1359   1.082       .  S
O1354      C1355   1.331       .  A
C1355      C1356   1.392       .  A
C1356      H1360   1.082       .  S
C1361      C1366   1.380       .  A
C1361      C1362   1.409       .  A
C1361      O1367   1.324       .  A
C1362      C1363   1.409       .  A
C1362      H1373   1.082       .  S
C1363      C1372   1.369       .  A
C1363      C1364   1.380       .  A
C1364      C1365   1.397       .  A
C1364      O1370   1.313       .  A
C1365      C1366   1.396       .  A
C1365      H1374   1.083       .  S
C1366      C1369   1.353       .  A
O1367      C1368   1.334       .  A
C1368      C1369   1.390       .  A
C1369      H1375   1.083       .  S
O1370      C1371   1.329       .  A
C1371      C1372   1.395       .  A
C1372      H1376   1.082       .  S
C1377      C1382   1.380       .  A
C1377      C1378   1.395       .  A
C1377      O1383   1.312       .  A
C1378      C1379   1.395       .  A
C1378      H1389   1.083       .  S
C1379      C1388   1.351       .  A
C1379      C1380   1.380       .  A
C1380      C1381   1.413       .  A
C1380      O1386   1.328       .  A
C1381      C1382   1.412       .  A
C1381      H1390   1.082       .  S
C1382      C1385   1.372       .  A
O1383      C1384   1.327       .  A
C1384      C1385   1.397       .  A
C1385      H1391   1.082       .  S
O1386      C1387   1.336       .  A
C1387      C1388   1.389       .  A
C1388      H1392   1.083       .  S
C1393      C1398   1.380       .  A
C1393      C1394   1.395       .  A
C1393      O1399   1.312       .  A
C1394      C1395   1.395       .  A
C1394      H1405   1.083       .  S
C1395      C1404   1.352       .  A
C1395      C1396   1.380       .  A
C1396      C1397   1.410       .  A
C1396      O1402   1.324       .  A
C1397      C1398   1.409       .  A
C1397      H1406   1.082       .  S
C1398      C1401   1.369       .  A
O1399      C1400   1.327       .  A
C1400      C1401   1.395       .  A
C1401      H1407   1.082       .  S
O1402      C1403   1.334       .  A
C1403      C1404   1.387       .  A
C1404      H1408   1.083       .  S
C1409      C1414   1.381       .  A
C1409      C1410   1.400       .  A
C1409      O1415   1.315       .  A
C1410      C1411   1.399       .  A
C1410      H1421   1.082       .  S
C1411      C1420   1.359       .  A
C1411      C1412   1.381       .  A
C1412      C1413   1.403       .  A
C1412      O1418   1.317       .  A
C1413      C1414   1.402       .  A
C1413      H1422   1.082       .  S
C1414      C1417   1.362       .  A
O1415      C1416   1.329       .  A
C1416      C1417   1.391       .  A
C1417      H1423   1.082       .  S
O1418      C1419   1.331       .  A
C1419      C1420   1.389       .  A
C1420      H1424   1.083       .  S
C1425      C1430   1.381       .  A
C1425      C1426   1.401       .  A
C1425      O1431   1.320       .  A
C1426      C1427   1.402       .  A
C1426      H1437   1.082       .  S
C1427      C1436   1.356       .  A
C1427      C1428   1.381       .  A
C1428      C1429   1.401       .  A
C1428      O1434   1.321       .  A
C1429      C1430   1.403       .  A
C1429      H1438   1.082       .  S
C1430      C1433   1.357       .  A
O1431      C1432   1.330       .  A
C1432      C1433   1.392       .  A
C1433      H1439   1.083       .  S
O1434      C1435   1.330       .  A
C1435      C1436   1.391       .  A
C1436      H1440   1.083       .  S
C1441      C1446   1.380       .  A
C1441      C1442   1.412       .  A
C1441      O1447   1.326       .  A
C1442      C1443   1.411       .  A
C1442      H1453   1.082       .  S
C1443      C1452   1.373       .  A
C1443      C1444   1.380       .  A
C1444      C1445   1.392       .  A
C1444      O1450   1.309       .  A
C1445      C1446   1.392       .  A
C1445      H1454   1.083       .  S
C1446      C1449   1.348       .  A
O1447      C1448   1.335       .  A
C1448      C1449   1.387       .  A
C1449      H1455   1.083       .  S
O1450      C1451   1.325       .  A
C1451      C1452   1.397       .  A
C1452      H1456   1.082       .  S
C1457      C1462   1.380       .  A
C1457      C1458   1.394       .  A
C1457      O1463   1.309       .  A
C1458      C1459   1.393       .  A
C1458      H1469   1.083       .  S
C1459      C1468   1.349       .  A
C1459      C1460   1.380       .  A
C1460      C1461   1.409       .  A
C1460      O1466   1.323       .  A
C1461      C1462   1.408       .  A
C1461      H1470   1.082       .  S
C1462      C1465   1.369       .  A
O1463      C1464   1.326       .  A
C1464      C1465   1.395       .  A
C1465      H1471   1.082       .  S
O1466      C1467   1.333       .  A
C1467      C1468   1.388       .  A
C1468      H1472   1.083       .  S
C1473      C1478   1.379       .  A
C1473      C1474   1.413       .  A
C1473      O1479   1.328       .  A
C1474      C1475   1.412       .  A
C1474      H1485   1.082       .  S
C1475      C1484   1.373       .  A
C1475      C1476   1.380       .  A
C1476      C1477   1.395       .  A
C1476      O1482   1.311       .  A
C1477      C1478   1.394       .  A
C1477      H1486   1.083       .  S
C1478      C1481   1.350       .  A
O1479      C1480   1.336       .  A
C1480      C1481   1.389       .  A
C1481      H1487   1.083       .  S
O1482      C1483   1.327       .  A
C1483      C1484   1.397       .  A
C1484      H1488   1.082       .  S
C1489      C1494   1.381       .  A
C1489      C1490   1.403       .  A
C1489      O1495   1.316       .  A
C1490      C1491   1.401       .  A
C1490      H1501   1.082       .  S
C1491      C1500   1.364       .  A
C1491      C1492   1.380       .  A
C1492      C1493   1.402       .  A
C1492      O1498   1.315       .  A
C1493      C1494   1.400       .  A
C1493      H1502   1.082       .  S
C1494      C1497   1.363       .  A
O1495      C1496   1.331       .  A
C1496      C1497   1.390       .  A
C1497      H1503   1.082       .  S
O1498      C1499   1.331       .  A
C1499      C1500   1.391       .  A
C1500      H1504   1.082       .  S
C1505      C1510   1.380       .  A
C1505      C1506   1.403       .  A
C1505      O1511   1.317       .  A
C1506      C1507   1.402       .  A
C1506      H1517   1.082       .  S
C1507      C1516   1.363       .  A
C1507      C1508   1.380       .  A
C1508      C1509   1.404       .  A
C1508      O1514   1.318       .  A
C1509      C1510   1.402       .  A
C1509      H1518   1.082       .  S
C1510      C1513   1.363       .  A
O1511      C1512   1.331       .  A
C1512      C1513   1.391       .  A
C1513      H1519   1.082       .  S
O1514      C1515   1.331       .  A
C1515      C1516   1.391       .  A
C1516      H1520   1.082       .  S
C1521      C1526   1.379       .  A
C1521      C1522   1.410       .  A
C1521      O1527   1.326       .  A
C1522      C1523   1.411       .  A
C1522      H1533   1.082       .  S
C1523      C1532   1.370       .  A
C1523      C1524   1.381       .  A
C1524      C1525   1.394       .  A
C1524      O1530   1.311       .  A
C1525      C1526   1.393       .  A
C1525      H1534   1.083       .  S
C1526      C1529   1.348       .  A
O1527      C1528   1.335       .  A
C1528      C1529   1.388       .  A
C1529      H1535   1.083       .  S
O1530      C1531   1.327       .  A
C1531      C1532   1.396       .  A
C1532      H1536   1.082       .  S
C1537      C1542   1.380       .  A
C1537      C1538   1.391       .  A
C1537      O1543   1.307       .  A
C1538      C1539   1.390       .  A
C1538      H1549   1.083       .  S
C1539      C1548   1.345       .  A
C1539      C1540   1.380       .  A
C1540      C1541   1.414       .  A
C1540      O1546   1.328       .  A
C1541      C1542   1.413       .  A
C1541      H1550   1.082       .  S
C1542      C1545   1.375       .  A
O1543      C1544   1.325       .  A
C1544      C1545   1.398       .  A
C1545      H1551   1.082       .  S
O1546      C1547   1.336       .  A
C1547      C1548   1.386       .  A
C1548      H1552   1.083       .  S
C1553      C1558   1.380       .  A
C1553      C1554   1.394       .  A
C1553      O1559   1.308       .  A
C1554      C1555   1.393       .  A
C1554      H1565   1.083       .  S
C1555      C1564   1.351       .  A
C1555      C1556   1.380       .  A
C1556      C1557   1.409       .  A
C1556      O1562   1.322       .  A
C1557      C1558   1.407       .  A
C1557      H1566   1.082       .  S
C1558      C1561   1.371       .  A
O1559      C1560   1.326       .  A
C1560      C1561   1.394       .  A
C1561      H1567   1.082       .  S
O1562      C1563   1.333       .  A
C1563      C1564   1.387       .  A
C1564      H1568   1.083       .  S
C1569      C1574   1.379       .  A
C1569      C1570   1.412       .  A
C1569      O1575   1.327       .  A
C1570      C1571   1.411       .  A
C1570      H1581   1.082       .  S
C1571      C1580   1.374       .  A
C1571      C1572   1.380       .  A
C1572      C1573   1.397       .  A
C1572      O1578   1.312       .  A
C1573      C1574   1.396       .  A
C1573      H1582   1.083       .  S
C1574      C1577   1.353       .  A
O1575      C1576   1.336       .  A
C1576      C1577   1.390       .  A
C1577      H1583   1.083       .  S
O1578      C1579   1.329       .  A
C1579      C1580   1.396       .  A
C1580      H1584   1.082       .  S
C1585      C1590   1.380       .  A
C1585      C1586   1.403       .  A
C1585      O1591   1.317       .  A
C1586      C1587   1.402       .  A
C1586      H1597   1.082       .  S
C1587      C1596   1.363       .  A
C1587      C1588   1.380       .  A
C1588      C1589   1.405       .  A
C1588      O1594   1.319       .  A
C1589      C1590   1.404       .  A
C1589      H1598   1.082       .  S
C1590      C1593   1.365       .  A
O1591      C1592   1.331       .  A
C1592      C1593   1.392       .  A
C1593      H1599   1.082       .  S
O1594      C1595   1.332       .  A
C1595      C1596   1.391       .  A
C1596      H1600   1.082       .  S
C1601      C1606   1.380       .  A
C1601      C1602   1.405       .  A
C1601      O1607   1.318       .  A
C1602      C1603   1.403       .  A
C1602      H1613   1.082       .  S
C1603      C1612   1.365       .  A
C1603      C1604   1.380       .  A
C1604      C1605   1.402       .  A
C1604      O1610   1.316       .  A
C1605      C1606   1.401       .  A
C1605      H1614   1.082       .  S
C1606      C1609   1.362       .  A
O1607      C1608   1.332       .  A
C1608      C1609   1.390       .  A
C1609      H1615   1.082       .  S
O1610      C1611   1.330       .  A
C1611      C1612   1.391       .  A
C1612      H1616   1.082       .  S
C1617      C1622   1.381       .  A
C1617      C1618   1.394       .  A
C1617      O1623   1.311       .  A
C1618      C1619   1.393       .  A
C1618      H1629   1.083       .  S
C1619      C1628   1.349       .  A
C1619      C1620   1.379       .  A
C1620      C1621   1.411       .  A
C1620      O1626   1.327       .  A
C1621      C1622   1.412       .  A
C1621      H1630   1.082       .  S
C1622      C1625   1.371       .  A
O1623      C1624   1.326       .  A
C1624      C1625   1.396       .  A
C1625      H1631   1.082       .  S
O1626      C1627   1.335       .  A
C1627      C1628   1.388       .  A
C1628      H1632   1.083       .  S
C1633      C1638   1.381       .  A
C1633      C1634   1.391       .  A
C1633      O1639   1.308       .  A
C1634      C1635   1.390       .  A
C1634      H1645   1.083       .  S
C1635      C1644   1.346       .  A
C1635      C1636   1.379       .  A
C1636      C1637   1.414       .  A
C1636      O1642   1.329       .  A
C1637      C1638   1.414       .  A
C1637      H1646   1.082       .  S
C1638      C1641   1.375       .  A
O1639      C1640   1.325       .  A
C1640      C1641   1.398       .  A
C1641      H1647   1.082       .  S
O1642      C1643   1.337       .  A
C1643      C1644   1.386       .  A
C1644      H1648   1.083       .  S
C1649      C1654   1.379       .  A
C1649      C1650   1.412       .  A
C1649      O1655   1.326       .  A
C1650      C1651   1.411       .  A
C1650      H1661   1.082       .  S
C1651      C1660   1.374       .  A
C1651      C1652   1.380       .  A
C1652      C1653   1.393       .  A
C1652      O1658   1.308       .  A
C1653      C1654   1.392       .  A
C1653      H1662   1.083       .  S
C1654      C1657   1.349       .  A
O1655      C1656   1.336       .  A
C1656      C1657   1.388       .  A
C1657      H1663   1.083       .  S
O1658      C1659   1.327       .  A
C1659      C1660   1.396       .  A
C1660      H1664   1.082       .  S
C1665      C1670   1.380       .  A
C1665      C1666   1.411       .  A
C1665      O1671   1.324       .  A
C1666      C1667   1.409       .  A
C1666      H1677   1.082       .  S
C1667      C1676   1.372       .  A
C1667      C1668   1.380       .  A
C1668      C1669   1.394       .  A
C1668      O1674   1.309       .  A
C1669      C1670   1.393       .  A
C1669      H1678   1.083       .  S
C1670      C1673   1.352       .  A
O1671      C1672   1.335       .  A
C1672      C1673   1.388       .  A
C1673      H1679   1.083       .  S
O1674      C1675   1.326       .  A
C1675      C1676   1.396       .  A
C1676      H1680   1.082       .  S
