geometry optimzed in LAMMPS
_audit_creation_date              2020-11-30 
_audit_creation_method            'lammps2cif' 
_symmetry_space_group_name_H-M    'P1' 
_symmetry_Int_Tables_number       1 
_symmetry_cell_setting            triclinic 
loop_ 
_symmetry_equiv_pos_as_xyz 
  x,y,z 
_cell_length_a                    45.6544024 
_cell_length_b                    45.60480140789871 
_cell_length_c                    33.04066933286166 
_cell_angle_alpha                 90.16902794947566 
_cell_angle_beta                  89.78679324291116 
_cell_angle_gamma                 120.28321224713454 
loop_ 
_atom_site_label 
_atom_site_type_symbol 
_atom_site_fract_x 
_atom_site_fract_y 
_atom_site_fract_z 
_atom_site_charge 
O1          O  0.25207209  0.76275094  0.16678462    -0.80500
C2          C  0.20025582  0.79877302  0.29741583     0.98800
O3          O  0.21886764  0.78629130  0.29070346    -0.69700
O4          O  0.24044876  0.75060127  0.25192350    -0.73200
Al5        Al  0.24828761  0.79601439  0.24614258     1.49000
C6          C  0.21634658  0.72207450  0.24083328     0.94100
O7          O  0.15797081  0.73609041  0.17108212    -0.79500
O8          O  0.18767734  0.80807349  0.15235365    -0.73000
Al9        Al  0.20602432  0.75314462  0.17330325     1.90100
O10         O  0.14941450  0.76672808  0.21562829    -0.72100
O11         O  0.23140354  0.85096556  0.20583440    -0.71900
O12         O  0.19130681  0.81113323  0.26904028    -0.77600
O13         O  0.26350720  0.84367050  0.24905244    -0.75800
O14         O  0.21541173  0.78557202  0.21000546    -1.11900
O15         O  0.28184138  0.80703983  0.20575657    -0.71100
C16         C  0.28026142  0.78726365  0.17811011     0.99600
C17         C  0.13815495  0.74143628  0.19240913     0.96000
Al18       Al  0.19199231  0.80733812  0.21064175     1.55600
O19         O  0.19638319  0.71974025  0.21321448    -0.75800
C20         C  0.25689933  0.86294207  0.22865183     1.00100
C21         C  0.20047282  0.80003237  0.12336654     0.95000
O22         O  0.21437083  0.78259867  0.12923278    -0.81100
O23         O  0.25121105  0.76223531  0.66920414    -0.80500
C24         C  0.20065357  0.80184514  0.79783957     0.98800
O25         O  0.21804346  0.78790574  0.79186592    -0.69700
O26         O  0.23841740  0.75046745  0.75453365    -0.73200
Al27       Al  0.24788366  0.79648658  0.74805829     1.49000
C28         C  0.21409978  0.72219536  0.74304484     0.94100
O29         O  0.15763609  0.73862290  0.67255766    -0.79500
O30         O  0.18953084  0.81032328  0.65238517    -0.73000
Al31       Al  0.20550957  0.75407004  0.67502347     1.90100
O32         O  0.15053686  0.77085157  0.71626916    -0.72100
O33         O  0.23436277  0.85271631  0.70505122    -0.71900
O34         O  0.19327426  0.81518091  0.76902581    -0.77600
O35         O  0.26473026  0.84465491  0.75016975    -0.75800
O36         O  0.21571551  0.78695666  0.71124395    -1.11900
O37         O  0.28162934  0.80616545  0.70849106    -0.71100
C38         C  0.27965906  0.78610729  0.68100508     0.99600
C39         C  0.13846422  0.74522224  0.69352471     0.96000
Al40       Al  0.19385367  0.81027990  0.71073172     1.55600
O41         O  0.19456312  0.72050726  0.71522362    -0.75800
C42         C  0.25956108  0.86423169  0.72826367     1.00100
C43         C  0.20197656  0.80143898  0.62386311     0.95000
O44         O  0.21512027  0.78343923  0.63051463    -0.81100
O45         O  0.24011870  0.49159339  0.33730550    -0.80500
C46         C  0.20137140  0.39966564  0.46416609     0.98800
O47         O  0.21569550  0.43120351  0.45886456    -0.69700
O48         O  0.25280462  0.48968446  0.42269269    -0.73200
Al49       Al  0.20687532  0.45293294  0.41610885     1.49000
C50         C  0.28091865  0.49409376  0.41021704     0.94100
O51         O  0.26432309  0.42229445  0.33736416    -0.79500
O52         O  0.19309235  0.38162574  0.31823133    -0.73000
Al53       Al  0.24859921  0.45430154  0.34145837     1.90100
O54         O  0.23301114  0.38245942  0.38118536    -0.72100
O55         O  0.15054343  0.38299359  0.37202545    -0.71900
O56         O  0.18827994  0.37923885  0.43485714    -0.77600
O57         O  0.15884836  0.42112516  0.41822729    -0.75800
O58         O  0.21619710  0.43089608  0.37804376    -1.11900
O59         O  0.19692314  0.47749905  0.37800840    -0.71100
C60         C  0.21650667  0.49590974  0.35035619     0.99600
C61         C  0.25827656  0.39648284  0.35785925     0.96000
Al62       Al  0.19320853  0.38551078  0.37668586     1.55600
O63         O  0.28243512  0.47695528  0.38125367    -0.75800
C64         C  0.13916497  0.39636054  0.39608615     1.00100
C65         C  0.20154426  0.40311070  0.28999611     0.95000
O66         O  0.21885498  0.43445058  0.29711420    -0.81100
O67         O  0.23600517  0.48905129  0.83436579    -0.80500
C68         C  0.19981534  0.39924603  0.96364926     0.98800
O69         O  0.21296889  0.43058117  0.95759578    -0.69700
O70         O  0.24950852  0.48854007  0.92008590    -0.73200
Al71       Al  0.20361303  0.45126375  0.91404356     1.49000
C72         C  0.27774478  0.49341259  0.90727803     0.94100
O73         O  0.26176316  0.42093408  0.83599316    -0.79500
O74         O  0.19074176  0.37867919  0.81824892    -0.73000
Al75       Al  0.24518733  0.45226512  0.83942507     1.90100
O76         O  0.23182870  0.38189214  0.88124337    -0.72100
O77         O  0.14806285  0.37974549  0.87178754    -0.71900
O78         O  0.18695367  0.37824551  0.93485054    -0.77600
O79         O  0.15560752  0.41886995  0.91620050    -0.75800
O80         O  0.21333149  0.42903507  0.87668247    -1.11900
O81         O  0.19305866  0.47504668  0.87532446    -0.71100
C82         C  0.21241438  0.49336306  0.84746135     0.99600
C83         C  0.25676750  0.39594122  0.85745070     0.96000
Al84       Al  0.19129557  0.38359270  0.87656007     1.55600
O85         O  0.27935629  0.47615485  0.87850090    -0.75800
C86         C  0.13626343  0.39349050  0.89460341     1.00100
C87         C  0.19810746  0.39961609  0.78959604     0.95000
O88         O  0.21492464  0.43111149  0.79589253    -0.81100
O89         O  0.51281329  0.76340470  0.08585536    -0.80500
C90         C  0.59915307  0.79846852  0.95293195     0.98800
O91         O  0.56786443  0.78411528  0.96013977    -0.69700
O92         O  0.51116104  0.74749429  0.00055645    -0.73200
Al93       Al  0.54762683  0.79400837  0.00409478     1.49000
C94         C  0.50751826  0.71995237  0.01404712     0.94100
O95         O  0.58284244  0.74041368  0.08181521    -0.79500
O96         O  0.62353152  0.81261172  0.09757529    -0.73000
Al97       Al  0.55026811  0.75539792  0.07950737     1.90100
O98         O  0.62061100  0.77060899  0.03537863    -0.72100
O99         O  0.61896475  0.85278544  0.04297286    -0.71900
O100        O  0.62066079  0.81292815  0.98084990    -0.77600
O101        O  0.57865653  0.84222990  0.99931222    -0.75800
O102        O  0.57165239  0.78655620  0.04098777    -1.11900
O103        O  0.52434160  0.80482880  0.04345803    -0.71100
C104        C  0.50745580  0.78624680  0.07262223     0.99600
C105        C  0.60768609  0.74595158  0.05960030     0.96000
Al106      Al  0.61700695  0.81021129  0.03933495     1.55600
O107        O  0.52612730  0.71983260  0.04192105    -0.75800
C108        C  0.60416143  0.86300133  0.01970597     1.00100
C109        C  0.60318800  0.80480864  0.12708567     0.95000
O110        O  0.57169273  0.78687049  0.12193228    -0.81100
O111        O  0.51364907  0.76563168  0.58632925    -0.80500
C112        C  0.60054778  0.80196185  0.45338552     0.98800
O113        O  0.56930541  0.78829215  0.46056000    -0.69700
O114        O  0.51240581  0.75127659  0.50055865    -0.73200
Al115      Al  0.54929364  0.79757389  0.50536659     1.49000
C116        C  0.50828159  0.72336710  0.51351081     0.94100
O117        O  0.58256051  0.74127019  0.58168118    -0.79500
O118        O  0.62429798  0.81228061  0.59825683    -0.73000
Al119      Al  0.55070449  0.75717035  0.57960411     1.90100
O120        O  0.62006872  0.77070739  0.53470068    -0.72100
O121        O  0.62141983  0.85413444  0.54516342    -0.71900
O122        O  0.62201610  0.81502668  0.48160144    -0.77600
O123        O  0.58114364  0.84573590  0.50240755    -0.75800
O124        O  0.57267808  0.78865119  0.54160732    -1.11900
O125        O  0.52610280  0.80808547  0.54536709    -0.71100
C126        C  0.50876458  0.78897123  0.57394070     0.99600
C127        C  0.60690106  0.74609396  0.55897786     0.96000
Al128      Al  0.61802600  0.81110956  0.54004299     1.55600
O129        O  0.52645519  0.72245122  0.54139539    -0.75800
C130        C  0.60702699  0.86548747  0.52297993     1.00100
C131        C  0.60392052  0.80508644  0.62763097     0.95000
O132        O  0.57238081  0.78815549  0.62230873    -0.81100
O133        O  0.74996639  0.24271718  0.41885475    -0.80500
C134        C  0.80286313  0.20570396  0.54653755     0.98800
O135        O  0.78470928  0.21882671  0.54091802    -0.69700
O136        O  0.76338822  0.25530584  0.50361980    -0.73200
Al137      Al  0.75447169  0.20944562  0.49755585     1.49000
C138        C  0.78742812  0.28356409  0.49163925     0.94100
O139        O  0.84366204  0.26756261  0.41979497    -0.79500
O140        O  0.81192046  0.19510729  0.40082655    -0.73000
Al141      Al  0.79579204  0.25142432  0.42360393     1.90100
O142        O  0.85200594  0.23628139  0.46325130    -0.72100
O143        O  0.76876543  0.15318115  0.45535963    -0.71900
O144        O  0.81063795  0.19267592  0.51756924    -0.77600
O145        O  0.73827167  0.16150005  0.50036005    -0.75800
O146        O  0.78641502  0.21899999  0.46014241    -1.11900
O147        O  0.72031525  0.19887652  0.45849081    -0.71100
C148        C  0.72179904  0.21861928  0.43101269     0.99600
C149        C  0.86339572  0.26173180  0.44037949     0.96000
Al150      Al  0.80888605  0.19628689  0.45930259     1.55600
O151        O  0.80685328  0.28523351  0.46352623    -0.75800
C152        C  0.74380466  0.14174797  0.47912537     1.00100
C153        C  0.79878311  0.20335353  0.37263636     0.95000
O154        O  0.78592102  0.22162264  0.37944358    -0.81100
O155        O  0.74732709  0.23991608  0.91560980    -0.80500
C156        C  0.79771264  0.20228174  0.04590330     0.98800
O157        O  0.78044100  0.21623132  0.03947349    -0.69700
O158        O  0.76025263  0.25326790  0.00127572    -0.73200
Al159      Al  0.75089164  0.20714810  0.99544251     1.49000
C160        C  0.78439951  0.28140939  0.98907479     0.94100
O161        O  0.84090771  0.26457222  0.91896309    -0.79500
O162        O  0.81046441  0.19315329  0.90058376    -0.73000
Al163      Al  0.79304060  0.24862334  0.92160472     1.90100
O164        O  0.84881344  0.23387073  0.96387619    -0.72100
O165        O  0.76536649  0.15069723  0.95377161    -0.71900
O166        O  0.80589629  0.18933732  0.01724411    -0.77600
O167        O  0.73430200  0.15903797  0.99801865    -0.75800
O168        O  0.78322506  0.21647659  0.95865583    -1.11900
O169        O  0.71718063  0.19676113  0.95591900    -0.71100
C170        C  0.71901555  0.21606454  0.92772885     0.99600
C171        C  0.86046313  0.25891917  0.94020393     0.96000
Al172      Al  0.80566141  0.19371083  0.95887346     1.55600
O173        O  0.80364530  0.28276621  0.96091310    -0.75800
C174        C  0.73985253  0.13927800  0.97674369     1.00100
C175        C  0.79799827  0.20141454  0.87166874     0.95000
O176        O  0.78379988  0.21854749  0.87782731    -0.81100
O177        O  0.76425228  0.51465509  0.08295180    -0.80500
C178        C  0.79971496  0.60340104  0.21347306     0.98800
O179        O  0.78608089  0.57201077  0.20711421    -0.69700
O180        O  0.75010173  0.51403215  0.16872238    -0.73200
Al181      Al  0.79588765  0.55162833  0.16326016     1.49000
C182        C  0.72189146  0.50906296  0.15599739     0.94100
O183        O  0.73808390  0.58245172  0.08645898    -0.79500
O184        O  0.80968016  0.62482782  0.06819635    -0.73000
Al185      Al  0.75469580  0.55113318  0.08892706     1.90100
O186        O  0.76847175  0.62168539  0.13135527    -0.72100
O187        O  0.85187560  0.62301894  0.12150862    -0.71900
O188        O  0.81284433  0.62449299  0.18481755    -0.77600
O189        O  0.84373262  0.58401334  0.16612714    -0.75800
O190        O  0.78644780  0.57412100  0.12621704    -1.11900
O191        O  0.80696538  0.52846541  0.12399643    -0.71100
C192        C  0.78808104  0.51062979  0.09557682     0.99600
C193        C  0.74342801  0.60767803  0.10784348     0.96000
Al194      Al  0.80878553  0.61955616  0.12646431     1.55600
O195        O  0.72038894  0.52680588  0.12791215    -0.75800
C196        C  0.86334829  0.60930082  0.14463533     1.00100
C197        C  0.80205258  0.60401146  0.03926768     0.95000
O198        O  0.78490193  0.57252516  0.04528550    -0.81100
O199        O  0.76281749  0.51515025  0.58377105    -0.80500
C200        C  0.79928682  0.60469291  0.71348525     0.98800
O201        O  0.78534547  0.57324719  0.70736022    -0.69700
O202        O  0.74868711  0.51538746  0.66921688    -0.73200
Al203      Al  0.79476461  0.55226616  0.66387468     1.49000
C204        C  0.72073035  0.51099398  0.65637660     0.94100
O205        O  0.73854730  0.58413663  0.58566161    -0.79500
O206        O  0.81062843  0.62536653  0.56797291    -0.73000
Al207      Al  0.75427775  0.55225202  0.58901382     1.90100
O208        O  0.76919148  0.62347241  0.63028239    -0.72100
O209        O  0.85193366  0.62323833  0.62246035    -0.71900
O210        O  0.81263154  0.62562524  0.68471130    -0.77600
O211        O  0.84276632  0.58399023  0.66717393    -0.75800
O212        O  0.78607140  0.57503375  0.62641118    -1.11900
O213        O  0.80532128  0.52841828  0.62497694    -0.71100
C214        C  0.78628806  0.51067386  0.59659318     0.99600
C215        C  0.74414049  0.60953655  0.60678138     0.96000
Al216      Al  0.80909158  0.62046626  0.62634990     1.55600
O217        O  0.71966847  0.52872968  0.62796815    -0.75800
C218        C  0.86288050  0.60942090  0.64620467     1.00100
C219        C  0.80264151  0.60430675  0.53923483     0.95000
O220        O  0.78479366  0.57289665  0.54545152    -0.81100
O221        O  0.48922872  0.24138574  0.33760488    -0.80500
C222        C  0.40179634  0.20038175  0.20636843     0.98800
O223        O  0.43309212  0.21446850  0.21317115    -0.69700
O224        O  0.48997638  0.25289292  0.25196583    -0.73200
Al225      Al  0.45350149  0.20659271  0.25814196     1.49000
C226        C  0.49335733  0.28099561  0.26299088     0.94100
O227        O  0.41878346  0.26358193  0.33178907    -0.79500
O228        O  0.37865964  0.19169471  0.35129363    -0.73000
Al229      Al  0.45150755  0.24875457  0.33036635     1.90100
O230        O  0.38047126  0.23141768  0.28709900    -0.72100
O231        O  0.38229007  0.14981124  0.29915154    -0.71900
O232        O  0.38034719  0.18741289  0.23476748    -0.77600
O233        O  0.42244191  0.15831115  0.25600712    -0.75800
O234        O  0.42973460  0.21581342  0.29384271    -1.11900
O235        O  0.47681991  0.19748110  0.29888657    -0.71100
C236        C  0.49407969  0.21758479  0.32674720     0.99600
C237        C  0.39344132  0.25689906  0.31012200     0.96000
Al238      Al  0.38438585  0.19214414  0.29311893     1.55600
O239        O  0.47488739  0.28242895  0.29037499    -0.75800
C240        C  0.39683786  0.13853282  0.27696418     1.00100
C241        C  0.39943826  0.20046481  0.38031542     0.95000
O242        O  0.43080960  0.21912631  0.37453607    -0.81100
O243        O  0.48847192  0.23984578  0.83409742    -0.80500
C244        C  0.39864491  0.20253664  0.70553420     0.98800
O245        O  0.43007981  0.21649321  0.71138029    -0.69700
O246        O  0.48832385  0.25278686  0.74887705    -0.73200
Al247      Al  0.45074087  0.20705580  0.75487167     1.49000
C248        C  0.49318162  0.28115358  0.76115778     0.94100
O249        O  0.42058103  0.26567375  0.83209949    -0.79500
O250        O  0.37869174  0.19397217  0.85126851    -0.73000
Al251      Al  0.45190836  0.24916863  0.82888076     1.90100
O252        O  0.38090191  0.23466680  0.78809611    -0.72100
O253        O  0.37983962  0.15135194  0.79766101    -0.71900
O254        O  0.37780706  0.18986525  0.73457503    -0.77600
O255        O  0.41835220  0.15923799  0.75225811    -0.83000
O256        O  0.42857572  0.21688017  0.79219041    -1.11900
O257        O  0.47397354  0.19623016  0.79395357    -0.71100
C258        C  0.49210396  0.21558973  0.82189853     0.99600
C259        C  0.39517892  0.26006536  0.81117784     0.96000
Al260      Al  0.38322160  0.19442938  0.79284664     1.55600
O261        O  0.47552011  0.28298014  0.78926061    -0.75800
C262        C  0.39316222  0.13972705  0.77392209     1.00100
C263        C  0.39996494  0.20192181  0.87960865     0.95000
O264        O  0.43128858  0.21945252  0.87289483    -0.81100
C265        C  0.37693817  0.19131266  0.58534884     0.18300
C266        C  0.37848239  0.16449842  0.56651756    -0.10800
C267        C  0.37862837  0.16235814  0.52419953    -0.11700
C268        C  0.37719639  0.18700867  0.50041621     0.19900
C269        C  0.37480084  0.21332261  0.51926391    -0.13700
C270        C  0.37468259  0.21547706  0.56155351    -0.12000
C271        C  0.38103332  0.18713308  0.45697878     0.00800
C272        C  0.38747864  0.19085328  0.42120061    -0.32000
C273        C  0.38046577  0.19546569  0.62876056     0.02200
C274        C  0.38674606  0.19914979  0.66454964    -0.33700
H275        H  0.38052470  0.14579405  0.58452643     0.13200
H276        H  0.38079164  0.14205915  0.51007875     0.13100
H277        H  0.37398537  0.23271925  0.50126564     0.12900
H278        H  0.37377193  0.23648185  0.57565034     0.12000
C279        C  0.38201330  0.19282387  0.08556595     0.18300
C280        C  0.38652632  0.22068416  0.06278219    -0.10800
C281        C  0.38611798  0.21920707  0.02043164    -0.11700
C282        C  0.38121774  0.18987470  0.00049510     0.19900
C283        C  0.37625264  0.16182827  0.02326301    -0.13700
C284        C  0.37664416  0.16330060  0.06565281    -0.12000
C285        C  0.38357224  0.18964553  0.95688231     0.00800
C286        C  0.38882478  0.19281987  0.92083196    -0.32000
C287        C  0.38520965  0.19533301  0.12911198     0.02200
C288        C  0.39080850  0.19773596  0.16506020    -0.33700
H289        H  0.39104609  0.24377573  0.07772328     0.13200
H290        H  0.39031979  0.24119510  0.00322633     0.13100
H291        H  0.37276669  0.13912406  0.00828664     0.12900
H292        H  0.37346067  0.14169601  0.08287211     0.12000
C293        C  0.63261927  0.42969847  0.69671248     0.18300
C294        C  0.61487566  0.40364280  0.66848696    -0.10800
C295        C  0.58562830  0.37365686  0.68016516    -0.11700
C296        C  0.57389670  0.36951761  0.72015890     0.19900
C297        C  0.59149523  0.39566445  0.74834935    -0.13700
C298        C  0.62076944  0.42567154  0.73666429    -0.12000
C299        C  0.54435336  0.33820195  0.73253844     0.00800
C300        C  0.52037221  0.31198162  0.74429464    -0.32000
C301        C  0.66342217  0.46000594  0.68473608     0.02200
C302        C  0.68953217  0.48415048  0.67299912    -0.33700
H303        H  0.62382614  0.40638845  0.63754510     0.13200
H304        H  0.57234258  0.35362037  0.65811994     0.13100
H305        H  0.58275085  0.39273785  0.77940102     0.12900
H306        H  0.63429343  0.44555471  0.75881165     0.12000
C307        C  0.80648135  0.62540292  0.83405601     0.18300
C308        C  0.83824180  0.64320754  0.85303761    -0.10800
C309        C  0.84061773  0.64292109  0.89536771    -0.11700
C310        C  0.81123410  0.62478690  0.91895213     0.19900
C311        C  0.77949253  0.60764942  0.89995830    -0.13700
C312        C  0.77712508  0.60792785  0.85775534    -0.12000
C313        C  0.81320776  0.62198932  0.96233607     0.00800
C314        C  0.81080225  0.61592493  0.99820751    -0.32000
C315        C  0.80405447  0.62249016  0.79043012     0.02200
C316        C  0.80162278  0.61646575  0.75452169    -0.33700
H317        H  0.86118604  0.65658052  0.83510205     0.13200
H318        H  0.86533308  0.65617741  0.90958076     0.13100
H319        H  0.75658160  0.59340793  0.91775376     0.12900
H320        H  0.75245415  0.59379519  0.84356089     0.12000
C321        C  0.81377190  0.62545403  0.41881884     0.18300
C322        C  0.78441200  0.62172403  0.40045750    -0.10800
C323        C  0.78189984  0.62156163  0.35818741    -0.11700
C324        C  0.80876132  0.62517435  0.33389493     0.19900
C325        C  0.83847513  0.62980196  0.35225528    -0.13700
C326        C  0.84097486  0.62992912  0.39454257    -0.12000
C327        C  0.80491373  0.62131529  0.29043620     0.00800
C328        C  0.80202038  0.61499062  0.25459518    -0.32000
C329        C  0.81468112  0.62204395  0.46224812     0.02200
C330        C  0.81179122  0.61592052  0.49812087    -0.33700
H331        H  0.76308662  0.61800176  0.41881106     0.13200
H332        H  0.75868487  0.61768982  0.34448669     0.13100
H333        H  0.85934121  0.63235674  0.33387992     0.12900
H334        H  0.86371959  0.63260000  0.40824325     0.12000
C335        C  0.57322333  0.36850294  0.21866059     0.18300
C336        C  0.58066655  0.40035357  0.23359034    -0.10800
C337        C  0.61061325  0.42971438  0.22185615    -0.11700
C338        C  0.63332271  0.42739456  0.19517644     0.19900
C339        C  0.62563775  0.39559418  0.17987474    -0.13700
C340        C  0.59572878  0.36627455  0.19158671    -0.12000
C341        C  0.66457697  0.45742678  0.18356051     0.00800
C342        C  0.69087413  0.48165415  0.17233506    -0.32000
C343        C  0.54342228  0.33796317  0.23245144     0.02200
C344        C  0.51976810  0.31199438  0.24537016    -0.33700
H345        H  0.56355528  0.40243821  0.25464476     0.13200
H346        H  0.61618895  0.45412919  0.23383841     0.13100
H347        H  0.64291250  0.39343013  0.15916644     0.12900
H348        H  0.59036389  0.34183151  0.17992544     0.12000
C349        C  0.79663936  0.43054990  0.05528529     0.18300
C350        C  0.78791831  0.40429435  0.08321538    -0.10800
C351        C  0.78725455  0.37446615  0.07133293    -0.11700
C352        C  0.79532907  0.37067259  0.03142682     0.19900
C353        C  0.80468576  0.39719213  0.00367822    -0.13700
C354        C  0.80534205  0.42703760  0.01556659    -0.12000
C355        C  0.79262671  0.33911837  0.01849191     0.00800
C356        C  0.78924829  0.31257990  0.00628132    -0.32000
C357        C  0.79535812  0.46038400  0.06716652     0.02200
C358        C  0.79274135  0.48411683  0.07876332    -0.33700
H359        H  0.78111105  0.40666362  0.11399970     0.13200
H360        H  0.77992705  0.35417356  0.09306806     0.13100
H361        H  0.81093611  0.39457645  0.97271690     0.12900
H362        H  0.81210584  0.44710616  0.99366397     0.12000
C363        C  0.57218687  0.20846042  0.86362658     0.18300
C364        C  0.57379702  0.17859156  0.86130989    -0.10800
C365        C  0.60347369  0.17885969  0.87269996    -0.11700
C366        C  0.63166530  0.20901819  0.88635166     0.19900
C367        C  0.62994953  0.23879294  0.88873787    -0.13700
C368        C  0.60034292  0.23852179  0.87739184    -0.12000
C369        C  0.66225855  0.20962324  0.89855952     0.00800
C370        C  0.68824274  0.21182835  0.91054709    -0.32000
C371        C  0.54220271  0.20879141  0.85082514     0.02200
C372        C  0.51847358  0.21099172  0.83873376    -0.33700
H373        H  0.55223295  0.15521359  0.85056341     0.13200
H374        H  0.60445006  0.15564774  0.87083019     0.13100
H375        H  0.65152150  0.26223442  0.89934393     0.12900
H376        H  0.59946236  0.26179255  0.87916994     0.12000
C377        C  0.81211703  0.19452129  0.75139905     0.18300
C378        C  0.82872656  0.22648245  0.73270540    -0.10800
C379        C  0.83153638  0.22902313  0.69048299    -0.11700
C380        C  0.81781702  0.19961722  0.66658802     0.19900
C381        C  0.80197747  0.16766262  0.68530895    -0.13700
C382        C  0.79914907  0.16511797  0.72757934    -0.12000
C383        C  0.81715730  0.20216374  0.62306239     0.00800
C384        C  0.81301487  0.20408934  0.58727196    -0.32000
C385        C  0.80670532  0.19222334  0.79467311     0.02200
C386        C  0.80212324  0.19369458  0.83050074    -0.33700
H387        H  0.83872749  0.24942697  0.75072090     0.13200
H388        H  0.84354429  0.25386674  0.67645056     0.13100
H389        H  0.79097438  0.14471633  0.66720068     0.12900
H390        H  0.78611942  0.14026624  0.74158107     0.12000
C391        C  0.80933104  0.19495538  0.16674985     0.18300
C392        C  0.82511231  0.22475695  0.18991934    -0.10800
C393        C  0.82314868  0.22306591  0.23219694    -0.11700
C394        C  0.80535229  0.19156970  0.25176484     0.19900
C395        C  0.78983831  0.16166958  0.22867210    -0.13700
C396        C  0.79181249  0.16336560  0.18627529    -0.12000
C397        C  0.80208013  0.19054995  0.29533914     0.00800
C398        C  0.80007925  0.19375821  0.33140851    -0.32000
C399        C  0.80910602  0.19709067  0.12311859     0.02200
C400        C  0.80619994  0.19955398  0.08711751    -0.33700
H401        H  0.83840341  0.24934254  0.17528505     0.13200
H402        H  0.83506182  0.24638649  0.24963383     0.13100
H403        H  0.77581424  0.13716370  0.24335582     0.12900
H404        H  0.77917810  0.14013094  0.16873950     0.12000
C405        C  0.79402704  0.43056701  0.55479788     0.18300
C406        C  0.77476974  0.41145697  0.52162242    -0.10800
C407        C  0.77490520  0.38196585  0.51017339    -0.11700
C408        C  0.79425340  0.37135475  0.53184696     0.19900
C409        C  0.81376739  0.39061611  0.56481464    -0.13700
C410        C  0.81363355  0.42014150  0.57627456    -0.12000
C411        C  0.79359550  0.34051351  0.52031432     0.00800
C412        C  0.79157375  0.31444157  0.50869115    -0.32000
C413        C  0.79268595  0.46010865  0.56766303     0.02200
C414        C  0.79042049  0.48387965  0.57980082    -0.33700
H415        H  0.75941362  0.41916506  0.50487213     0.13200
H416        H  0.75971971  0.36729265  0.48462734     0.13100
H417        H  0.82883313  0.38268850  0.58180296     0.12900
H418        H  0.82853007  0.43463764  0.60207301     0.12000
C419        C  0.63375919  0.21196960  0.39293928     0.18300
C420        C  0.60908440  0.18525597  0.36958824    -0.10800
C421        C  0.57934899  0.18502935  0.35865229    -0.11700
C422        C  0.57411858  0.21148045  0.37106734     0.19900
C423        C  0.59862702  0.23795977  0.39479222    -0.13700
C424        C  0.62832322  0.23818846  0.40570887    -0.12000
C425        C  0.54446150  0.21234828  0.35795609     0.00800
C426        C  0.52076342  0.21424766  0.34505644    -0.32000
C427        C  0.66468134  0.21271548  0.40392102     0.02200
C428        C  0.69082757  0.21470553  0.41487476    -0.33700
H429        H  0.61293702  0.16479326  0.35961242     0.13200
H430        H  0.56065185  0.16447653  0.34016936     0.13100
H431        H  0.59496180  0.25861493  0.40445026     0.12900
H432        H  0.64715835  0.25893594  0.42385164     0.12000
C433        C  0.68651004  0.65392890  0.59067737     0.18300
C434        C  0.69872863  0.68671984  0.60609143    -0.10800
C435        C  0.68131128  0.70406405  0.59852081    -0.11700
C436        C  0.65154169  0.68879364  0.57542454     0.19900
C437        C  0.63915979  0.65590001  0.56015080    -0.13700
C438        C  0.65661722  0.63852019  0.56773360    -0.12000
C439        C  0.63404674  0.70714841  0.56747518     0.00800
C440        C  0.62086202  0.72410838  0.56239574    -0.32000
C441        C  0.70524784  0.63667471  0.59759879     0.02200
C442        C  0.72230869  0.62360364  0.60265672    -0.33700
H443        H  0.72184168  0.69896624  0.62374635     0.13200
H444        H  0.69115048  0.72945750  0.61052255     0.13100
H445        H  0.61616927  0.64379078  0.54227434     0.12900
H446        H  0.64694974  0.61321935  0.55552742     0.12000
C447        C  0.68752847  0.03903655  0.49638820     0.18300
C448        C  0.70540009  0.02156748  0.49922920    -0.10800
C449        C  0.68803149  0.98647873  0.50603901    -0.11700
C450        C  0.65262294  0.96852041  0.51011925     0.19900
C451        C  0.63473351  0.98600801  0.50762914    -0.13700
C452        C  0.65212967  0.02115233  0.50081369    -0.12000
C453        C  0.63481989  0.93214559  0.51599357     0.00800
C454        C  0.62122796  0.90167635  0.51984591    -0.32000
C455        C  0.70566479  0.07522669  0.48902006     0.02200
C456        C  0.72220592  0.10556058  0.48357941    -0.33700
H457        H  0.73275566  0.03505087  0.49600603     0.13200
H458        H  0.70219690  0.97332075  0.50787740     0.13100
H459        H  0.60737023  0.97246984  0.51071133     0.12900
H460        H  0.63799039  0.03432478  0.49882535     0.12000
C461        C  0.68647436  0.65279589  0.09139902     0.18300
C462        C  0.68882192  0.67728103  0.11900867    -0.10800
C463        C  0.67193912  0.69518880  0.11146708    -0.11700
C464        C  0.65259554  0.68879110  0.07623328     0.19900
C465        C  0.65013464  0.66422150  0.04865622    -0.13700
C466        C  0.66703565  0.64629531  0.05620546    -0.12000
C467        C  0.63567507  0.70774352  0.06840005     0.00800
C468        C  0.62234505  0.72457876  0.06330919    -0.32000
C469        C  0.70485507  0.63519222  0.09860500     0.02200
C470        C  0.72156324  0.62173778  0.10377344    -0.33700
H471        H  0.70388367  0.68269145  0.14621253     0.13200
H472        H  0.67411417  0.71414758  0.13300362     0.13100
H473        H  0.63532820  0.65906003  0.02127524     0.12900
H474        H  0.66513816  0.62756206  0.03450094     0.12000
C475        C  0.68063818  0.03639944  0.99192712     0.18300
C476        C  0.65840353  0.01426411  0.96240918    -0.10800
C477        C  0.64111205  0.97903750  0.96876448    -0.11700
C478        C  0.64589765  0.96566126  0.00470060     0.19900
C479        C  0.66770858  0.98784468  0.03443788    -0.13700
C480        C  0.68497254  0.02301778  0.02809311    -0.12000
C481        C  0.62955772  0.92928697  0.01053951     0.00800
C482        C  0.61726361  0.89898788  0.01521501    -0.32000
C483        C  0.69990969  0.07266821  0.98481027     0.02200
C484        C  0.71743748  0.10305512  0.98012575    -0.33700
H485        H  0.65479141  0.02418681  0.93429655     0.13200
H486        H  0.62439805  0.96224146  0.94545351     0.13100
H487        H  0.67173863  0.97793232  0.06230929     0.12900
H488        H  0.70207136  0.03975875  0.05117564     0.12000
C489        C  0.62129579  0.80689701  0.83251865     0.18300
C490        C  0.61484276  0.77925709  0.80777863    -0.10800
C491        C  0.61630228  0.78265968  0.76557428    -0.11700
C492        C  0.62417969  0.81369449  0.74775926     0.19900
C493        C  0.63139110  0.84154558  0.77249834    -0.13700
C494        C  0.62996929  0.83815350  0.81471311    -0.12000
C495        C  0.62203489  0.81585842  0.70434367     0.00800
C496        C  0.61626429  0.81380651  0.66845221    -0.32000
C497        C  0.61657693  0.80269843  0.87585215     0.02200
C498        C  0.61014892  0.80005844  0.91165771    -0.33700
H499        H  0.60784355  0.75488211  0.82105431     0.13200
H500        H  0.61038175  0.76083220  0.74682218     0.13100
H501        H  0.63722202  0.86558400  0.75918992     0.12900
H502        H  0.63475785  0.85965682  0.83344677     0.12000
C503        C  0.62189342  0.81194552  0.33251309     0.18300
C504        C  0.63143886  0.79242347  0.30903852    -0.10800
C505        C  0.63262467  0.79512394  0.26667223    -0.11700
C506        C  0.62430457  0.81738054  0.24745628     0.19900
C507        C  0.61554679  0.83743068  0.27101331    -0.13700
C508        C  0.61437328  0.83474440  0.31328861    -0.12000
C509        C  0.62167395  0.81740650  0.20378950     0.00800
C510        C  0.61561890  0.81425005  0.16788446    -0.32000
C511        C  0.61778244  0.80744379  0.37597005     0.02200
C512        C  0.61156123  0.80432012  0.41189358    -0.33700
H513        H  0.63716838  0.77457377  0.32337909     0.13200
H514        H  0.63913357  0.77921349  0.24888772     0.13100
H515        H  0.60872862  0.85448286  0.25666409     0.12900
H516        H  0.60678668  0.84987492  0.33095294     0.12000
C517        C  0.03333055  0.35030768  0.90664227     0.18300
C518        C  0.02017827  0.35949970  0.93959085    -0.10800
C519        C  0.98512354  0.34248526  0.94677584    -0.11700
C520        C  0.96291066  0.31610520  0.92108763     0.19900
C521        C  0.97601220  0.30732538  0.88770273    -0.13700
C522        C  0.01106728  0.32433511  0.88052253    -0.12000
C523        C  0.92687383  0.29736764  0.92952924     0.00800
C524        C  0.89665144  0.28050139  0.93565537    -0.32000
C525        C  0.06963279  0.36656282  0.90066979     0.02200
C526        C  0.10004889  0.37934462  0.89710266    -0.33700
H527        H  0.03705467  0.37947977  0.96006931     0.13200
H528        H  0.97540079  0.34957951  0.97265962     0.13100
H529        H  0.95917413  0.28701438  0.86755593     0.12900
H530        H  0.02082759  0.31690477  0.85497568     0.12000
C531        C  0.31553128  0.35273278  0.84066317     0.18300
C532        C  0.31407204  0.33823090  0.80269944    -0.10800
C533        C  0.33182583  0.32105694  0.79574591    -0.11700
C534        C  0.35118766  0.31826092  0.82669439     0.19900
C535        C  0.35285481  0.33297130  0.86458521    -0.13700
C536        C  0.33508950  0.35015595  0.87154347    -0.12000
C537        C  0.36831449  0.29931553  0.81999043     0.00800
C538        C  0.38138170  0.28218748  0.81513022    -0.32000
C539        C  0.29627559  0.36943953  0.84807633     0.02200
C540        C  0.27899970  0.38230165  0.85326256    -0.33700
H541        H  0.29896722  0.33993208  0.77860304     0.13200
H542        H  0.33018240  0.30967865  0.76639003     0.13100
H543        H  0.36759547  0.33086604  0.88883549     0.12900
H544        H  0.33635497  0.36114412  0.90105922     0.12000
C545        C  0.36605811  0.57342344  0.94942599     0.18300
C546        C  0.38913883  0.57034464  0.97441344    -0.10800
C547        C  0.41917254  0.59939901  0.98663649    -0.11700
C548        C  0.42629040  0.63165901  0.97384816     0.19900
C549        C  0.40326839  0.63463688  0.94873794    -0.13700
C550        C  0.37331221  0.60566316  0.93655838    -0.12000
C551        C  0.45658020  0.66189733  0.98717173     0.00800
C552        C  0.48065741  0.68816096  0.99868374    -0.32000
C553        C  0.33494113  0.54375685  0.93677967     0.02200
C554        C  0.30870743  0.52009185  0.92453290    -0.33700
H555        H  0.38386943  0.54557265  0.98453735     0.13200
H556        H  0.43669156  0.59673306  0.00617598     0.13100
H557        H  0.40838404  0.65939703  0.93875973     0.12900
H558        H  0.35573655  0.60841676  0.91721494     0.12000
C559        C  0.03670416  0.35233420  0.41229940     0.18300
C560        C  0.01731802  0.36586565  0.39725793    -0.10800
C561        C  0.98221630  0.34903659  0.40411416    -0.11700
C562        C  0.96629075  0.31859446  0.42610592     0.19900
C563        C  0.98574686  0.30524101  0.44137840    -0.13700
C564        C  0.02079276  0.32204150  0.43452787    -0.12000
C565        C  0.92995909  0.30044082  0.43209238     0.00800
C566        C  0.89954160  0.28368483  0.43647002    -0.32000
C567        C  0.07280897  0.36922093  0.40486283     0.02200
C568        C  0.10307783  0.38225162  0.39979314    -0.33700
H569        H  0.02928130  0.38926983  0.38006508     0.13200
H570        H  0.96749017  0.35960793  0.39203411     0.13100
H571        H  0.97378387  0.28170324  0.45831991     0.12900
H572        H  0.03544994  0.31130312  0.44636438     0.12000
C573        C  0.34754621  0.31349083  0.32526385     0.18300
C574        C  0.33699348  0.32564239  0.29280277    -0.10800
C575        C  0.32019708  0.34375683  0.30009030    -0.11700
C576        C  0.31383142  0.34986284  0.33989281     0.19900
C577        C  0.32438110  0.33770625  0.37233524    -0.13700
C578        C  0.34116969  0.31960082  0.36505175    -0.12000
C579        C  0.29580535  0.36784909  0.34739626     0.00800
C580        C  0.27957167  0.38179910  0.35299843    -0.32000
C581        C  0.36453029  0.29444944  0.31791689     0.02200
C582        C  0.37823023  0.27786946  0.31319848    -0.33700
H583        H  0.34163581  0.32101892  0.26190707     0.13200
H584        H  0.31204168  0.35285282  0.27471282     0.13100
H585        H  0.31949262  0.34208067  0.40323158     0.12900
H586        H  0.34906872  0.31026620  0.39043666     0.12000
C587        C  0.18528533  0.37894486  0.66911253     0.18300
C588        C  0.17612959  0.39865767  0.64579863    -0.10800
C589        C  0.17856035  0.39873233  0.60359058    -0.11700
C590        C  0.19021431  0.37913121  0.58422674     0.19900
C591        C  0.19882535  0.35888593  0.60742893    -0.13700
C592        C  0.19638959  0.35881466  0.64978893    -0.12000
C593        C  0.19459136  0.38137675  0.54079723     0.00800
C594        C  0.19809436  0.38730263  0.50491657    -0.32000
C595        C  0.18580477  0.38171659  0.71270617     0.02200
C596        C  0.18920302  0.38780470  0.74856715    -0.33700
H597        H  0.16783747  0.41458185  0.66029785     0.13200
H598        H  0.17197379  0.41462218  0.58606678     0.13100
H599        H  0.20800399  0.34372390  0.59288492     0.12900
H600        H  0.20385517  0.34369100  0.66745748     0.12000
C601        C  0.19287306  0.37929922  0.08422184     0.18300
C602        C  0.16589090  0.38009405  0.10359750    -0.10800
C603        C  0.16455427  0.38106601  0.14591707    -0.11700
C604        C  0.19019103  0.38124260  0.16929384     0.19900
C605        C  0.21676228  0.37958697  0.14997491    -0.13700
C606        C  0.21811436  0.37863969  0.10759676    -0.12000
C607        C  0.19057802  0.38561003  0.21272672     0.00800
C608        C  0.19344094  0.39199924  0.24856064    -0.32000
C609        C  0.19584478  0.38199573  0.04059978     0.02200
C610        C  0.19797509  0.38769949  0.00464232    -0.33700
H611        H  0.14635078  0.38089725  0.08595361     0.13200
H612        H  0.14400476  0.38256972  0.16035078     0.13100
H613        H  0.23688696  0.37992737  0.16762085     0.12900
H614        H  0.23926322  0.37830218  0.09309374     0.12000
C615        C  0.36907291  0.57406059  0.45166150     0.18300
C616        C  0.38462205  0.57569867  0.48877483    -0.10800
C617        C  0.41416851  0.60557617  0.50013005    -0.11700
C618        C  0.42826477  0.63389110  0.47439512     0.19900
C619        C  0.41289472  0.63205194  0.43715471    -0.13700
C620        C  0.38342377  0.60225042  0.42582750    -0.12000
C621        C  0.45769129  0.66525018  0.48665833     0.00800
C622        C  0.48138794  0.69193011  0.49767026    -0.32000
C623        C  0.33803774  0.54395800  0.44008251     0.02200
C624        C  0.31184972  0.52027356  0.42791525    -0.33700
H625        H  0.37375363  0.55408513  0.50902538     0.13200
H626        H  0.42577191  0.60673250  0.52908349     0.13100
H627        H  0.42346904  0.65378235  0.41708505     0.12900
H628        H  0.37161921  0.60130556  0.39708825     0.12000
C629        C  0.34872520  0.03733262  0.75667767     0.18300
C630        C  0.36765862  0.02113615  0.75120789    -0.10800
C631        C  0.35117362  0.98610753  0.74376695    -0.11700
C632        C  0.31567030  0.96711564  0.74168932     0.19900
C633        C  0.29681445  0.98340734  0.74680401    -0.13700
C634        C  0.31326790  0.01836670  0.75424152    -0.12000
C635        C  0.29830271  0.93085451  0.73529762     0.00800
C636        C  0.28177254  0.90038855  0.73126114    -0.32000
C637        C  0.36548787  0.07336566  0.76450101     0.02200
C638        C  0.37859690  0.10359822  0.76998289    -0.33700
H639        H  0.39509272  0.03553399  0.75284725     0.13200
H640        H  0.36605644  0.97383645  0.73988902     0.13100
H641        H  0.26936976  0.96903707  0.74529460     0.12900
H642        H  0.29833730  0.03057948  0.75824133     0.12000
C643        C  0.96524166  0.65450872  0.66424102     0.18300
C644        C  0.98768401  0.65637246  0.63392885    -0.10800
C645        C  0.02269817  0.67368381  0.64107894    -0.11700
C646        C  0.03557318  0.68925680  0.67860873     0.19900
C647        C  0.01313077  0.68735495  0.70897073    -0.13700
C648        C  0.97810152  0.67003441  0.70181860    -0.12000
C649        C  0.07177610  0.70773732  0.68552096     0.00800
C650        C  0.10219019  0.72405829  0.69004371    -0.32000
C651        C  0.92916102  0.63728482  0.65659743     0.02200
C652        C  0.89893489  0.62382753  0.65094045    -0.33700
H653        H  0.97814032  0.64461294  0.60471494     0.13200
H654        H  0.03973819  0.67507554  0.61727156     0.13100
H655        H  0.02270657  0.69939101  0.73805176     0.12900
H656        H  0.96107607  0.66890929  0.72549055     0.12000
C657        C  0.20588879  0.63421789  0.78519290     0.18300
C658        C  0.20283209  0.62529114  0.82620982    -0.10800
C659        C  0.20269059  0.59570955  0.83800601    -0.11700
C660        C  0.20559953  0.57486067  0.80886193     0.19900
C661        C  0.20838624  0.58368448  0.76786329    -0.13700
C662        C  0.20852423  0.61322319  0.75608376    -0.12000
C663        C  0.20665413  0.54498050  0.82101789     0.00800
C664        C  0.20861899  0.52073817  0.83191193    -0.32000
C665        C  0.20727261  0.66526055  0.77281744     0.02200
C666        C  0.20965597  0.69131731  0.76050921    -0.33700
H667        H  0.20087121  0.64131656  0.84904625     0.13200
H668        H  0.20062134  0.58926494  0.86982623     0.13100
H669        H  0.21075701  0.56789737  0.74503613     0.12900
H670        H  0.21100039  0.61985494  0.72429568     0.12000
C671        C  0.42794334  0.79508013  0.61696954     0.18300
C672        C  0.41356759  0.78213006  0.65499391    -0.10800
C673        C  0.38370268  0.78134168  0.66694747    -0.11700
C674        C  0.36795218  0.79345163  0.64095112     0.19900
C675        C  0.38251283  0.80672122  0.60309982    -0.13700
C676        C  0.41238377  0.80751257  0.59114577    -0.12000
C677        C  0.33665523  0.79173552  0.65296182     0.00800
C678        C  0.31043563  0.78953954  0.66439135    -0.32000
C679        C  0.45786408  0.79447715  0.60381942     0.02200
C680        C  0.48187402  0.79274413  0.59133127    -0.33700
H681        H  0.42523473  0.77233100  0.67520531     0.13200
H682        H  0.37273605  0.77101847  0.69629271     0.13100
H683        H  0.37063150  0.81616656  0.58270918     0.12900
H684        H  0.42314345  0.81748502  0.56161910     0.12000
C685        C  0.35023714  0.03575419  0.26236096     0.18300
C686        C  0.36341967  0.01519303  0.27417661    -0.10800
C687        C  0.34518943  0.98017277  0.26646959    -0.11700
C688        C  0.31370120  0.96551730  0.24685110     0.19900
C689        C  0.30046741  0.98607201  0.23531634    -0.13700
C690        C  0.31866110  0.02102605  0.24301425    -0.12000
C691        C  0.29475214  0.92943818  0.23887410     0.00800
C692        C  0.27802515  0.89917387  0.23303992    -0.32000
C693        C  0.36895433  0.07195133  0.26955212     0.02200
C694        C  0.38288570  0.10238948  0.27393641    -0.33700
H695        H  0.38776371  0.02621523  0.28920145     0.13200
H696        H  0.35565065  0.96456249  0.27572920     0.13100
H697        H  0.27611200  0.97508933  0.22031547     0.12900
H698        H  0.30814416  0.03659386  0.23376566     0.12000
C699        C  0.96557083  0.65175846  0.16081751     0.18300
C700        C  0.97845461  0.66743461  0.19828765    -0.10800
C701        C  0.01332109  0.68357069  0.20599424    -0.11700
C702        C  0.03561307  0.68415023  0.17630344     0.19900
C703        C  0.02271373  0.66818527  0.13894002    -0.13700
C704        C  0.98780421  0.65202935  0.13122405    -0.12000
C705        C  0.07174941  0.70238906  0.18355097     0.00800
C706        C  0.10205723  0.71926171  0.18861874    -0.32000
C707        C  0.92965626  0.63593258  0.15280634     0.02200
C708        C  0.89944815  0.62340719  0.14787937    -0.33700
H709        H  0.96157531  0.66744622  0.22142182     0.13200
H710        H  0.02293031  0.69592832  0.23491456     0.13100
H711        H  0.03966391  0.66856852  0.11563761     0.12900
H712        H  0.97821276  0.64004244  0.10212512     0.12000
C713        C  0.18630370  0.80833061  0.91820291     0.18300
C714        C  0.20889757  0.83884779  0.93770753    -0.10800
C715        C  0.21088658  0.84036871  0.98004685    -0.11700
C716        C  0.19028084  0.81136512  0.00318512     0.19900
C717        C  0.16717140  0.78104637  0.98369547    -0.13700
C718        C  0.16520383  0.77951939  0.94137791    -0.12000
C719        C  0.19427850  0.81180364  0.04658890     0.00800
C720        C  0.19752386  0.80885310  0.08238757    -0.32000
C721        C  0.18695529  0.80591676  0.87463248     0.02200
C722        C  0.19090681  0.80393037  0.83874627    -0.33700
H723        H  0.22560290  0.86121762  0.92016542     0.13200
H724        H  0.22903600  0.86388784  0.99465560     0.13100
H725        H  0.15127332  0.75836016  0.00118173     0.12900
H726        H  0.14788383  0.75567980  0.92674168     0.12000
C727        C  0.18899057  0.80717070  0.41815991     0.18300
C728        C  0.21877278  0.83217020  0.43681973    -0.10800
C729        C  0.22094708  0.83464042  0.47907914    -0.11700
C730        C  0.19333187  0.81214210  0.50307275     0.19900
C731        C  0.16331593  0.78748549  0.48442590    -0.13700
C732        C  0.16114673  0.78499703  0.44211202    -0.12000
C733        C  0.19663690  0.81261309  0.54659895     0.00800
C734        C  0.19946438  0.80991953  0.58256659    -0.32000
C735        C  0.18809883  0.80321494  0.37468578     0.02200
C736        C  0.19108709  0.80060643  0.33868992    -0.33700
H737        H  0.24058640  0.84929669  0.41870105     0.13200
H738        H  0.24440402  0.85358252  0.49302758     0.13100
H739        H  0.14188002  0.76970467  0.50259570     0.12900
H740        H  0.13807192  0.76538297  0.42814683     0.12000
C741        C  0.20917453  0.63535106  0.28519375     0.18300
C742        C  0.21054342  0.61330429  0.25661505    -0.10800
C743        C  0.21060409  0.58409118  0.26925437    -0.11700
C744        C  0.20929316  0.57671382  0.31056624     0.19900
C745        C  0.20760716  0.59859610  0.33919834    -0.13700
C746        C  0.20755008  0.62785651  0.32653881    -0.12000
C747        C  0.21063753  0.54724179  0.32350004     0.00800
C748        C  0.21278470  0.52324266  0.33478571    -0.32000
C749        C  0.21038682  0.66601110  0.27187174     0.02200
C750        C  0.21249914  0.69168409  0.25878416    -0.33700
H751        H  0.21189591  0.61887295  0.22457704     0.13200
H752        H  0.21200369  0.56744454  0.24685010     0.13100
H753        H  0.20667007  0.59321442  0.37124704     0.12900
H754        H  0.20656911  0.64474727  0.34892556     0.12000
C755        C  0.36826136  0.79496204  0.13674733     0.18300
C756        C  0.38957216  0.79350522  0.16614692    -0.10800
C757        C  0.41893170  0.79314143  0.15457948    -0.11700
C758        C  0.42720439  0.79423777  0.11351291     0.19900
C759        C  0.40609819  0.79608059  0.08411584    -0.13700
C760        C  0.37672328  0.79643641  0.09568723    -0.12000
C761        C  0.45672850  0.79250952  0.10139793     0.00800
C762        C  0.48055079  0.79013163  0.08966552    -0.32000
C763        C  0.33727173  0.79382969  0.14883949     0.02200
C764        C  0.31117514  0.79158691  0.16081898    -0.33700
H765        H  0.38328982  0.79226791  0.19798404     0.13200
H766        H  0.43495897  0.79164292  0.17760642     0.13100
H767        H  0.41215580  0.79687245  0.05225802     0.12900
H768        H  0.36045377  0.79748224  0.07264444     0.12000
loop_ 
_geom_bond_atom_site_label_1 
_geom_bond_atom_site_label_2 
_geom_bond_distance 
_geom_bond_site_symmetry_2 
_ccdc_geom_bond_type 
O1           C16   1.263       .  A
O1           Al9   1.930       .  S
C2           O12   1.266       .  A
C2            O3   1.257       .  A
C2          C736   1.440       .  S
O3           Al5   1.886       .  S
O4            C6   1.263       .  A
O4           Al5   1.926       .  S
Al5          O13   1.921       .  S
Al5          O15   1.895       .  S
Al5          O14   1.787       .  S
C6           O19   1.258       .  A
C6          C750   1.436       .  S
O7           C17   1.261       .  A
O7           Al9   1.924       .  S
O8           C21   1.266       .  A
O8          Al18   1.939       .  S
Al9          O22   1.887       .  S
Al9          O19   1.893       .  S
Al9          O14   1.788       .  S
O10          C17   1.258       .  A
O10         Al18   1.898       .  S
O11          C20   1.259       .  A
O11         Al18   1.900       .  S
O12         Al18   1.938       .  S
O13          C20   1.261       .  A
O14         Al18   1.789       .  S
O15          C16   1.258       .  A
C16         C764   1.439       .  S
C17         C706   1.440       .  S
C20         C692   1.440       .  S
C21          O22   1.258       .  A
C21         C720   1.440       .  S
O23          C38   1.265       .  A
O23         Al31   1.935       .  S
C24          O34   1.266       .  A
C24          O25   1.257       .  A
C24         C722   1.439       .  S
O25         Al27   1.886       .  S
O26          C28   1.263       .  A
O26         Al27   1.930       .  S
Al27         O35   1.928       .  S
Al27         O37   1.892       .  S
Al27         O36   1.787       .  S
C28          O41   1.258       .  A
C28         C666   1.440       .  S
O29          C39   1.264       .  A
O29         Al31   1.931       .  S
O30          C43   1.265       .  A
O30         Al40   1.939       .  S
Al31         O44   1.888       .  S
Al31         O41   1.895       .  S
Al31         O36   1.785       .  S
O32          C39   1.258       .  A
O32         Al40   1.895       .  S
O33          C42   1.258       .  A
O33         Al40   1.895       .  S
O34         Al40   1.940       .  S
O35          C42   1.263       .  A
O36         Al40   1.789       .  S
O37          C38   1.258       .  A
C38         C678   1.440       .  S
C39         C650   1.441       .  S
C42         C636   1.439       .  S
C43          O44   1.257       .  A
C43         C734   1.440       .  S
O45          C60   1.264       .  A
O45         Al53   1.931       .  S
C46          O56   1.265       .  A
C46          O47   1.257       .  A
C46         C594   1.439       .  S
O47         Al49   1.885       .  S
O48          C50   1.263       .  A
O48         Al49   1.926       .  S
Al49         O57   1.926       .  S
Al49         O59   1.890       .  S
Al49         O58   1.787       .  S
C50          O63   1.257       .  A
C50         C624   1.436       .  S
O51          C61   1.263       .  A
O51         Al53   1.929       .  S
O52          C65   1.265       .  A
O52         Al62   1.939       .  S
Al53         O66   1.891       .  S
Al53         O63   1.892       .  S
Al53         O58   1.786       .  S
O54          C61   1.259       .  A
O54         Al62   1.898       .  S
O55          C64   1.260       .  A
O55         Al62   1.899       .  S
O56         Al62   1.940       .  S
O57          C64   1.263       .  A
O58         Al62   1.788       .  S
O59          C60   1.257       .  A
C60         C748   1.437       .  S
C61         C580   1.440       .  S
C64         C568   1.440       .  S
C65          O66   1.258       .  A
C65         C608   1.442       .  S
O67          C82   1.263       .  A
O67         Al75   1.931       .  S
C68          O78   1.265       .  A
C68          O69   1.256       .  A
C68         C610   1.441   1_556  S
O69         Al71   1.887       .  S
O70          C72   1.264       .  A
O70         Al71   1.931       .  S
Al71         O79   1.930       .  S
Al71         O81   1.893       .  S
Al71         O80   1.786       .  S
C72          O85   1.258       .  A
C72         C554   1.439       .  S
O73          C83   1.263       .  A
O73         Al75   1.928       .  S
O74          C87   1.265       .  A
O74         Al84   1.938       .  S
Al75         O88   1.890       .  S
Al75         O85   1.892       .  S
Al75         O80   1.787       .  S
O76          C83   1.259       .  A
O76         Al84   1.898       .  S
O77          C86   1.259       .  A
O77         Al84   1.898       .  S
O78         Al84   1.939       .  S
O79          C86   1.264       .  A
O80         Al84   1.790       .  S
O81          C82   1.257       .  A
C82         C664   1.441       .  S
C83         C540   1.439       .  S
C86         C526   1.442       .  S
C87          O88   1.258       .  A
C87         C596   1.439       .  S
O89         C104   1.264       .  A
O89         Al97   1.931       .  S
C90         O100   1.265       .  A
C90          O91   1.257       .  A
C90         C498   1.441       .  S
O91         Al93   1.890   1_556  S
O92          C94   1.263       .  A
O92         Al93   1.930       .  S
Al93        O101   1.930   1_554  S
Al93        O103   1.892       .  S
Al93        O102   1.787       .  S
C94         O107   1.257       .  A
C94         C552   1.439   1_554  S
O95         C105   1.263       .  A
O95         Al97   1.926       .  S
O96         C109   1.266       .  A
O96        Al106   1.943       .  S
Al97        O110   1.888       .  S
Al97        O107   1.893       .  S
Al97        O102   1.787       .  S
O98         C105   1.259       .  A
O98        Al106   1.898       .  S
O99         C108   1.260       .  A
O99        Al106   1.902       .  S
O100       Al106   1.938   1_556  S
O101        C108   1.264   1_556  A
O102       Al106   1.789       .  S
O103        C104   1.258       .  A
C104        C762   1.439       .  S
C105        C468   1.440       .  S
C108        C482   1.444       .  S
C109        O110   1.257       .  A
C109        C510   1.442       .  S
O111        C126   1.262       .  A
O111       Al119   1.928       .  S
C112        O122   1.265       .  A
C112        O113   1.257       .  A
C112        C512   1.444       .  S
O113       Al115   1.893       .  S
O114        C116   1.265       .  A
O114       Al115   1.932       .  S
Al115       O123   1.931       .  S
Al115       O125   1.896       .  S
Al115       O124   1.786       .  S
C116        O129   1.257       .  A
C116        C622   1.436       .  S
O117        C127   1.263       .  A
O117       Al119   1.926       .  S
O118        C131   1.266       .  A
O118       Al128   1.942       .  S
Al119       O132   1.886       .  S
Al119       O129   1.886       .  S
Al119       O124   1.787       .  S
O120        C127   1.259       .  A
O120       Al128   1.899       .  S
O121        C130   1.259       .  A
O121       Al128   1.896       .  S
O122       Al128   1.939       .  S
O123        C130   1.264       .  A
O124       Al128   1.789       .  S
O125        C126   1.257       .  A
C126        C680   1.440       .  S
C127        C440   1.439       .  S
C130        C454   1.441       .  S
C131        O132   1.257       .  A
C131        C496   1.439       .  S
O133        C148   1.263       .  A
O133       Al141   1.930       .  S
C134        O144   1.266       .  A
C134        O135   1.258       .  A
C134        C384   1.439       .  S
O135       Al137   1.886       .  S
O136        C138   1.263       .  A
O136       Al137   1.929       .  S
Al137       O145   1.925       .  S
Al137       O147   1.893       .  S
Al137       O146   1.787       .  S
C138        O151   1.257       .  A
C138        C412   1.436       .  S
O139        C149   1.262       .  A
O139       Al141   1.926       .  S
O140        C153   1.266       .  A
O140       Al150   1.939       .  S
Al141       O154   1.885       .  S
Al141       O151   1.892       .  S
Al141       O146   1.788       .  S
O142        C149   1.258       .  A
O142       Al150   1.897       .  S
O143        C152   1.258       .  A
O143       Al150   1.899       .  S
O144       Al150   1.938       .  S
O145        C152   1.262       .  A
O146       Al150   1.788       .  S
O147        C148   1.258       .  A
C148        C428   1.437       .  S
C149        C566   1.441       .  S
C152        C456   1.441       .  S
C153        O154   1.257       .  A
C153        C398   1.440       .  S
O155        C170   1.263       .  A
O155       Al163   1.929       .  S
C156        O166   1.265       .  A
C156        O157   1.257       .  A
C156        C400   1.440       .  S
O157       Al159   1.886   1_554  S
O158        C160   1.264   1_554  A
O158       Al159   1.933   1_554  S
Al159       O167   1.929       .  S
Al159       O169   1.891       .  S
Al159       O168   1.787       .  S
C160        O173   1.257       .  A
C160        C356   1.439   1_556  S
O161        C171   1.263       .  A
O161       Al163   1.926       .  S
O162        C175   1.265       .  A
O162       Al172   1.939       .  S
Al163       O176   1.887       .  S
Al163       O173   1.892       .  S
Al163       O168   1.787       .  S
O164        C171   1.261       .  A
O164       Al172   1.904       .  S
O165        C174   1.260       .  A
O165       Al172   1.903       .  S
O166       Al172   1.940   1_554  S
O167        C174   1.263       .  A
O168       Al172   1.789       .  S
O169        C170   1.257       .  A
C170        C370   1.437       .  S
C171        C524   1.442       .  S
C174        C484   1.444       .  S
C175        O176   1.257       .  A
C175        C386   1.439       .  S
O177        C192   1.264       .  A
O177       Al185   1.930       .  S
C178        O188   1.265       .  A
C178        O179   1.258       .  A
C178        C328   1.441       .  S
O179       Al181   1.890       .  S
O180        C182   1.263       .  A
O180       Al181   1.930       .  S
Al181       O189   1.926       .  S
Al181       O191   1.892       .  S
Al181       O190   1.787       .  S
C182        O195   1.258       .  A
C182        C342   1.440       .  S
O183        C193   1.263       .  A
O183       Al185   1.928       .  S
O184        C197   1.265       .  A
O184       Al194   1.939       .  S
Al185       O198   1.889       .  S
Al185       O195   1.893       .  S
Al185       O190   1.786       .  S
O186        C193   1.259       .  A
O186       Al194   1.898       .  S
O187        C196   1.259       .  A
O187       Al194   1.899       .  S
O188       Al194   1.939       .  S
O189        C196   1.263       .  A
O190       Al194   1.789       .  S
O191        C192   1.257       .  A
C192        C358   1.439       .  S
C193        C470   1.440       .  S
C196        C708   1.440       .  S
C197        O198   1.257       .  A
C197        C314   1.441   1_554  S
O199        C214   1.262       .  A
O199       Al207   1.926       .  S
C200        O210   1.265       .  A
C200        O201   1.258       .  A
C200        C316   1.441       .  S
O201       Al203   1.889       .  S
O202        C204   1.263       .  A
O202       Al203   1.928       .  S
Al203       O211   1.926       .  S
Al203       O213   1.893       .  S
Al203       O212   1.787       .  S
C204        O217   1.258       .  A
C204        C302   1.438       .  S
O205        C215   1.262       .  A
O205       Al207   1.923       .  S
O206        C219   1.265       .  A
O206       Al216   1.939       .  S
Al207       O220   1.889       .  S
Al207       O217   1.894       .  S
Al207       O212   1.788       .  S
O208        C215   1.259       .  A
O208       Al216   1.898       .  S
O209        C218   1.259       .  A
O209       Al216   1.899       .  S
O210       Al216   1.939       .  S
O211        C218   1.263       .  A
O212       Al216   1.789       .  S
O213        C214   1.258       .  A
C214        C414   1.437       .  S
C215        C442   1.439       .  S
C218        C652   1.441       .  S
C219        O220   1.258       .  A
C219        C330   1.441       .  S
O221        C236   1.263       .  A
O221       Al229   1.930       .  S
C222        O232   1.266       .  A
C222        O223   1.257       .  A
C222        C288   1.439       .  S
O223       Al225   1.886       .  S
O224        C226   1.264       .  A
O224       Al225   1.931       .  S
Al225       O233   1.927       .  S
Al225       O235   1.892       .  S
Al225       O234   1.787       .  S
C226        O239   1.258       .  A
C226        C344   1.439       .  S
O227        C237   1.262       .  A
O227       Al229   1.926       .  S
O228        C241   1.265       .  A
O228       Al238   1.938       .  S
Al229       O242   1.887       .  S
Al229       O239   1.895       .  S
Al229       O234   1.787       .  S
O230        C237   1.259       .  A
O230       Al238   1.899       .  S
O231        C240   1.258       .  A
O231       Al238   1.895       .  S
O232       Al238   1.938       .  S
O233        C240   1.262       .  A
O234       Al238   1.788       .  S
O235        C236   1.257       .  A
C236        C426   1.437       .  S
C237        C582   1.441       .  S
C240        C694   1.440       .  S
C241        O242   1.258       .  A
C241        C272   1.439       .  S
O243        C258   1.263       .  A
O243       Al251   1.928       .  S
C244        O254   1.266       .  A
C244        O245   1.258       .  A
C244        C274   1.440       .  S
O245       Al247   1.888       .  S
O246        C248   1.263       .  A
O246       Al247   1.930       .  S
Al247       O255   1.923       .  S
Al247       O257   1.892       .  S
Al247       O256   1.786       .  S
C248        O261   1.257       .  A
C248        C300   1.438       .  S
O249        C259   1.263       .  A
O249       Al251   1.926       .  S
O250        C263   1.265       .  A
O250       Al260   1.940       .  S
Al251       O264   1.885       .  S
Al251       O261   1.892       .  S
Al251       O256   1.786       .  S
O252        C259   1.259       .  A
O252       Al260   1.898       .  S
O253        C262   1.259       .  A
O253       Al260   1.898       .  S
O254       Al260   1.939       .  S
O255        C262   1.262       .  A
O256       Al260   1.788       .  S
O257        C258   1.257       .  A
C258        C372   1.436       .  S
C259        C538   1.439       .  S
C262        C638   1.438       .  S
C263        O264   1.257       .  A
C263        C286   1.439       .  S
C265        C273   1.445       .  S
C265        C266   1.403       .  A
C265        C270   1.401       .  A
C266        C267   1.402       .  A
C266        H275   1.084       .  S
C267        C268   1.402       .  A
C267        H276   1.083       .  S
C268        C271   1.445       .  S
C268        C269   1.403       .  A
C269        C270   1.401       .  A
C269        H277   1.084       .  S
C270        H278   1.083       .  S
C271        C272   1.209       .  T
C273        C274   1.209       .  T
C279        C287   1.445       .  S
C279        C280   1.401       .  A
C279        C284   1.403       .  A
C280        C281   1.400       .  A
C280        H289   1.083       .  S
C281        C282   1.403       .  A
C281        H290   1.084       .  S
C282        C285   1.445   1_554  S
C282        C283   1.402       .  A
C283        C284   1.402       .  A
C283        H291   1.083       .  S
C284        H292   1.083       .  S
C285        C286   1.209       .  T
C287        C288   1.209       .  T
C293        C301   1.443       .  S
C293        C294   1.402       .  A
C293        C298   1.402       .  A
C294        C295   1.400       .  A
C294        H303   1.083       .  S
C295        C296   1.401       .  A
C295        H304   1.083       .  S
C296        C299   1.443       .  S
C296        C297   1.403       .  A
C297        C298   1.401       .  A
C297        H305   1.083       .  S
C298        H306   1.083       .  S
C299        C300   1.208       .  T
C301        C302   1.208       .  T
C307        C315   1.447       .  S
C307        C308   1.404       .  A
C307        C312   1.401       .  A
C308        C309   1.404       .  A
C308        H317   1.083       .  S
C309        C310   1.403       .  A
C309        H318   1.083       .  S
C310        C313   1.447       .  S
C310        C311   1.402       .  A
C311        C312   1.400       .  A
C311        H319   1.084       .  S
C312        H320   1.084       .  S
C313        C314   1.210       .  T
C315        C316   1.210       .  T
C321        C329   1.447       .  S
C321        C322   1.403       .  A
C321        C326   1.402       .  A
C322        C323   1.401       .  A
C322        H331   1.084       .  S
C323        C324   1.402       .  A
C323        H332   1.083       .  S
C324        C327   1.447       .  S
C324        C325   1.403       .  A
C325        C326   1.402       .  A
C325        H333   1.083       .  S
C326        H334   1.083       .  S
C327        C328   1.210       .  T
C329        C330   1.210       .  T
C335        C343   1.444       .  S
C335        C336   1.403       .  A
C335        C340   1.401       .  A
C336        C337   1.402       .  A
C336        H345   1.083       .  S
C337        C338   1.402       .  A
C337        H346   1.083       .  S
C338        C341   1.445       .  S
C338        C339   1.402       .  A
C339        C340   1.400       .  A
C339        H347   1.084       .  S
C340        H348   1.083       .  S
C341        C342   1.209       .  T
C343        C344   1.209       .  T
C349        C357   1.444       .  S
C349        C350   1.402       .  A
C349        C354   1.402       .  A
C350        C351   1.400       .  A
C350        H359   1.083       .  S
C351        C352   1.401       .  A
C351        H360   1.084       .  S
C352        C355   1.444       .  S
C352        C353   1.403       .  A
C353        C354   1.401       .  A
C353        H361   1.083   1_554  S
C354        H362   1.083   1_554  S
C355        C356   1.209       .  T
C357        C358   1.208       .  T
C363        C371   1.442       .  S
C363        C364   1.403       .  A
C363        C368   1.401       .  A
C364        C365   1.402       .  A
C364        H373   1.083       .  S
C365        C366   1.402       .  A
C365        H374   1.083       .  S
C366        C369   1.442       .  S
C366        C367   1.401       .  A
C367        C368   1.398       .  A
C367        H375   1.084       .  S
C368        H376   1.084       .  S
C369        C370   1.207       .  T
C371        C372   1.207       .  T
C377        C385   1.445       .  S
C377        C378   1.403       .  A
C377        C382   1.402       .  A
C378        C379   1.400       .  A
C378        H387   1.084       .  S
C379        C380   1.402       .  A
C379        H388   1.083       .  S
C380        C383   1.445       .  S
C380        C381   1.403       .  A
C381        C382   1.402       .  A
C381        H389   1.083       .  S
C382        H390   1.083       .  S
C383        C384   1.209       .  T
C385        C386   1.209       .  T
C391        C399   1.446       .  S
C391        C392   1.401       .  A
C391        C396   1.404       .  A
C392        C393   1.399       .  A
C392        H401   1.084       .  S
C393        C394   1.402       .  A
C393        H402   1.084       .  S
C394        C397   1.445       .  S
C394        C395   1.403       .  A
C395        C396   1.403       .  A
C395        H403   1.083       .  S
C396        H404   1.083       .  S
C397        C398   1.209       .  T
C399        C400   1.209       .  T
C405        C413   1.442       .  S
C405        C406   1.401       .  A
C405        C410   1.402       .  A
C406        C407   1.399       .  A
C406        H415   1.083       .  S
C407        C408   1.402       .  A
C407        H416   1.084       .  S
C408        C411   1.442       .  S
C408        C409   1.401       .  A
C409        C410   1.401       .  A
C409        H417   1.083       .  S
C410        H418   1.083       .  S
C411        C412   1.207       .  T
C413        C414   1.207       .  T
C419        C427   1.443       .  S
C419        C420   1.402       .  A
C419        C424   1.402       .  A
C420        C421   1.401       .  A
C420        H429   1.083       .  S
C421        C422   1.403       .  A
C421        H430   1.083       .  S
C422        C425   1.443       .  S
C422        C423   1.401       .  A
C423        C424   1.399       .  A
C423        H431   1.083       .  S
C424        H432   1.083       .  S
C425        C426   1.207       .  T
C427        C428   1.207       .  T
C433        C441   1.444       .  S
C433        C434   1.401       .  A
C433        C438   1.403       .  A
C434        C435   1.399       .  A
C434        H443   1.083       .  S
C435        C436   1.402       .  A
C435        H444   1.084       .  S
C436        C439   1.444       .  S
C436        C437   1.402       .  A
C437        C438   1.402       .  A
C437        H445   1.083       .  S
C438        H446   1.083       .  S
C439        C440   1.208       .  T
C441        C442   1.208       .  T
C447        C455   1.446       .  S
C447        C448   1.402       .  A
C447        C452   1.403       .  A
C448        C449   1.400   1_545  A
C448        H457   1.084       .  S
C449        C450   1.402       .  A
C449        H458   1.083       .  S
C450        C453   1.446       .  S
C450        C451   1.403       .  A
C451        C452   1.403   1_565  A
C451        H459   1.083       .  S
C452        H460   1.083       .  S
C453        C454   1.210       .  T
C455        C456   1.210       .  T
C461        C469   1.445       .  S
C461        C462   1.402       .  A
C461        C466   1.403       .  A
C462        C463   1.400       .  A
C462        H471   1.083       .  S
C463        C464   1.402       .  A
C463        H472   1.084       .  S
C464        C467   1.445       .  S
C464        C465   1.402       .  A
C465        C466   1.402       .  A
C465        H473   1.083       .  S
C466        H474   1.083       .  S
C467        C468   1.209       .  T
C469        C470   1.209       .  T
C475        C483   1.449       .  S
C475        C476   1.403       .  A
C475        C480   1.403   1_556  A
C476        C477   1.404   1_545  A
C476        H485   1.083       .  S
C477        C478   1.404   1_556  A
C477        H486   1.083       .  S
C478        C481   1.449       .  S
C478        C479   1.402       .  A
C479        C480   1.401   1_565  A
C479        H487   1.083       .  S
C480        H488   1.083       .  S
C481        C482   1.211       .  T
C483        C484   1.211       .  T
C489        C497   1.446       .  S
C489        C490   1.402       .  A
C489        C494   1.403       .  A
C490        C491   1.401       .  A
C490        H499   1.083       .  S
C491        C492   1.403       .  A
C491        H500   1.084       .  S
C492        C495   1.445       .  S
C492        C493   1.401       .  A
C493        C494   1.401       .  A
C493        H501   1.083       .  S
C494        H502   1.083       .  S
C495        C496   1.209       .  T
C497        C498   1.209       .  T
C503        C511   1.449       .  S
C503        C504   1.403       .  A
C503        C508   1.403       .  A
C504        C505   1.404       .  A
C504        H513   1.083       .  S
C505        C506   1.404       .  A
C505        H514   1.083       .  S
C506        C509   1.448       .  S
C506        C507   1.401       .  A
C507        C508   1.401       .  A
C507        H515   1.083       .  S
C508        H516   1.083       .  S
C509        C510   1.211       .  T
C511        C512   1.211       .  T
C517        C525   1.447       .  S
C517        C518   1.403       .  A
C517        C522   1.403       .  A
C518        C519   1.402   1_455  A
C518        H527   1.083       .  S
C519        C520   1.402       .  A
C519        H528   1.083       .  S
C520        C523   1.447       .  S
C520        C521   1.403       .  A
C521        C522   1.402   1_655  A
C521        H529   1.084       .  S
C522        H530   1.083       .  S
C523        C524   1.210       .  T
C525        C526   1.210       .  T
C531        C539   1.444       .  S
C531        C532   1.402       .  A
C531        C536   1.402       .  A
C532        C533   1.400       .  A
C532        H541   1.083       .  S
C533        C534   1.402       .  A
C533        H542   1.084       .  S
C534        C537   1.444       .  S
C534        C535   1.403       .  A
C535        C536   1.401       .  A
C535        H543   1.083       .  S
C536        H544   1.083       .  S
C537        C538   1.208       .  T
C539        C540   1.209       .  T
C545        C553   1.444       .  S
C545        C546   1.403       .  A
C545        C550   1.401       .  A
C546        C547   1.403       .  A
C546        H555   1.083       .  S
C547        C548   1.403       .  A
C547        H556   1.083   1_556  S
C548        C551   1.444       .  S
C548        C549   1.401       .  A
C549        C550   1.399       .  A
C549        H557   1.083       .  S
C550        H558   1.084       .  S
C551        C552   1.208       .  T
C553        C554   1.208       .  T
C559        C567   1.445       .  S
C559        C560   1.403       .  A
C559        C564   1.402       .  A
C560        C561   1.402   1_455  A
C560        H569   1.083       .  S
C561        C562   1.403       .  A
C561        H570   1.083       .  S
C562        C565   1.445       .  S
C562        C563   1.402       .  A
C563        C564   1.400   1_655  A
C563        H571   1.083       .  S
C564        H572   1.084       .  S
C565        C566   1.209       .  T
C567        C568   1.209       .  T
C573        C581   1.446       .  S
C573        C574   1.402       .  A
C573        C578   1.403       .  A
C574        C575   1.402       .  A
C574        H583   1.083       .  S
C575        C576   1.403       .  A
C575        H584   1.083       .  S
C576        C579   1.446       .  S
C576        C577   1.402       .  A
C577        C578   1.401       .  A
C577        H585   1.083       .  S
C578        H586   1.083       .  S
C579        C580   1.209       .  T
C581        C582   1.209       .  T
C587        C595   1.445       .  S
C587        C588   1.401       .  A
C587        C592   1.404       .  A
C588        C589   1.398       .  A
C588        H597   1.084       .  S
C589        C590   1.402       .  A
C589        H598   1.084       .  S
C590        C593   1.445       .  S
C590        C591   1.403       .  A
C591        C592   1.403       .  A
C591        H599   1.083       .  S
C592        H600   1.083       .  S
C593        C594   1.209       .  T
C595        C596   1.209       .  T
C601        C609   1.447       .  S
C601        C602   1.403       .  A
C601        C606   1.403       .  A
C602        C603   1.401       .  A
C602        H611   1.084       .  S
C603        C604   1.401       .  A
C603        H612   1.083       .  S
C604        C607   1.447       .  S
C604        C605   1.404       .  A
C605        C606   1.403       .  A
C605        H613   1.083       .  S
C606        H614   1.083       .  S
C607        C608   1.210       .  T
C609        C610   1.210       .  T
C615        C623   1.441       .  S
C615        C616   1.402       .  A
C615        C620   1.401       .  A
C616        C617   1.401       .  A
C616        H625   1.083       .  S
C617        C618   1.403       .  A
C617        H626   1.083       .  S
C618        C621   1.441       .  S
C618        C619   1.400       .  A
C619        C620   1.398       .  A
C619        H627   1.083       .  S
C620        H628   1.084       .  S
C621        C622   1.207       .  T
C623        C624   1.207       .  T
C629        C637   1.443       .  S
C629        C630   1.403       .  A
C629        C634   1.401       .  A
C630        C631   1.402   1_545  A
C630        H639   1.083       .  S
C631        C632   1.402       .  A
C631        H640   1.083       .  S
C632        C635   1.444       .  S
C632        C633   1.402       .  A
C633        C634   1.399   1_565  A
C633        H641   1.084       .  S
C634        H642   1.084       .  S
C635        C636   1.208       .  T
C637        C638   1.208       .  T
C643        C651   1.446       .  S
C643        C644   1.402       .  A
C643        C648   1.403       .  A
C644        C645   1.401   1_655  A
C644        H653   1.083       .  S
C645        C646   1.402       .  A
C645        H654   1.083       .  S
C646        C649   1.446       .  S
C646        C647   1.402       .  A
C647        C648   1.402   1_455  A
C647        H655   1.083       .  S
C648        H656   1.084       .  S
C649        C650   1.210       .  T
C651        C652   1.210       .  T
C657        C665   1.445       .  S
C657        C658   1.402       .  A
C657        C662   1.402       .  A
C658        C659   1.402       .  A
C658        H667   1.083       .  S
C659        C660   1.404       .  A
C659        H668   1.083       .  S
C660        C663   1.446       .  S
C660        C661   1.401       .  A
C661        C662   1.400       .  A
C661        H669   1.083       .  S
C662        H670   1.083       .  S
C663        C664   1.209       .  T
C665        C666   1.209       .  T
C671        C679   1.445       .  S
C671        C672   1.402       .  A
C671        C676   1.403       .  A
C672        C673   1.401       .  A
C672        H681   1.083       .  S
C673        C674   1.403       .  A
C673        H682   1.083       .  S
C674        C677   1.445       .  S
C674        C675   1.402       .  A
C675        C676   1.401       .  A
C675        H683   1.083       .  S
C676        H684   1.083       .  S
C677        C678   1.209       .  T
C679        C680   1.209       .  T
C685        C693   1.445       .  S
C685        C686   1.402       .  A
C685        C690   1.402       .  A
C686        C687   1.402   1_545  A
C686        H695   1.083       .  S
C687        C688   1.403       .  A
C687        H696   1.083       .  S
C688        C691   1.445       .  S
C688        C689   1.401       .  A
C689        C690   1.400   1_565  A
C689        H697   1.083       .  S
C690        H698   1.084       .  S
C691        C692   1.209       .  T
C693        C694   1.209       .  T
C699        C707   1.445       .  S
C699        C700   1.402       .  A
C699        C704   1.402       .  A
C700        C701   1.400   1_655  A
C700        H709   1.084       .  S
C701        C702   1.402       .  A
C701        H710   1.083       .  S
C702        C705   1.445       .  S
C702        C703   1.403       .  A
C703        C704   1.402   1_455  A
C703        H711   1.083       .  S
C704        H712   1.083       .  S
C705        C706   1.209       .  T
C707        C708   1.209       .  T
C713        C721   1.445       .  S
C713        C714   1.403       .  A
C713        C718   1.402       .  A
C714        C715   1.401       .  A
C714        H723   1.083       .  S
C715        C716   1.402   1_556  A
C715        H724   1.083       .  S
C716        C719   1.445       .  S
C716        C717   1.403   1_554  A
C717        C718   1.401       .  A
C717        H725   1.084   1_556  S
C718        H726   1.083       .  S
C719        C720   1.209       .  T
C721        C722   1.209       .  T
C727        C735   1.445       .  S
C727        C728   1.403       .  A
C727        C732   1.402       .  A
C728        C729   1.400       .  A
C728        H737   1.084       .  S
C729        C730   1.401       .  A
C729        H738   1.083       .  S
C730        C733   1.446       .  S
C730        C731   1.404       .  A
C731        C732   1.402       .  A
C731        H739   1.083       .  S
C732        H740   1.083       .  S
C733        C734   1.209       .  T
C735        C736   1.209       .  T
C741        C749   1.441       .  S
C741        C742   1.401       .  A
C741        C746   1.402       .  A
C742        C743   1.399       .  A
C742        H751   1.084       .  S
C743        C744   1.401       .  A
C743        H752   1.083       .  S
C744        C747   1.442       .  S
C744        C745   1.403       .  A
C745        C746   1.401       .  A
C745        H753   1.083       .  S
C746        H754   1.083       .  S
C747        C748   1.207       .  T
C749        C750   1.207       .  T
C755        C763   1.444       .  S
C755        C756   1.403       .  A
C755        C760   1.402       .  A
C756        C757   1.401       .  A
C756        H765   1.083       .  S
C757        C758   1.401       .  A
C757        H766   1.083       .  S
C758        C761   1.444       .  S
C758        C759   1.403       .  A
C759        C760   1.401       .  A
C759        H767   1.083       .  S
C760        H768   1.083       .  S
C761        C762   1.208       .  T
C763        C764   1.208       .  T
