geometry optimzed in LAMMPS
_audit_creation_date              2020-11-30 
_audit_creation_method            'lammps2cif' 
_symmetry_space_group_name_H-M    'P1' 
_symmetry_Int_Tables_number       1 
_symmetry_cell_setting            triclinic 
loop_ 
_symmetry_equiv_pos_as_xyz 
  x,y,z 
_cell_length_a                    26.06189847 
_cell_length_b                    26.039513951370076 
_cell_length_c                    43.173766563536724 
_cell_angle_alpha                 90.13639840830508 
_cell_angle_beta                  89.56766174865233 
_cell_angle_gamma                 78.83742789991821 
loop_ 
_atom_site_label 
_atom_site_type_symbol 
_atom_site_fract_x 
_atom_site_fract_y 
_atom_site_fract_z 
_atom_site_charge 
O1          O  0.91635727  0.02347724  0.44040553    -0.79800
O2          O  0.99471558  0.08209991  0.04805455    -0.79900
O3          O  0.89051640  0.00408325  0.02011331    -0.79900
O4          O  0.99032220  0.11849676  0.48741012    -0.79800
O5          O  0.93510064  0.01156181  0.06118692    -0.79900
O6          O  0.99231836  0.08446492  0.44048649    -0.79900
O7          O  0.06815175  0.10142259  0.03038847    -0.79800
O8          O  0.90399632  0.95328088  0.46607355    -0.79900
C9          C  0.88895300  0.98908916  0.44607773     1.09900
C10         C  0.03020950  0.11054376  0.04945723     1.09700
C11         C  0.89110540  0.01492185  0.04853058     1.09900
C12         C  0.98452614  0.12376872  0.45836014     1.09800
O13         O  0.06964562  0.98989117  0.44587021    -0.79800
O14         O  0.00564495  0.92127602  0.04040759    -0.79900
O15         O  0.01065214  0.90304054  0.48318612    -0.79800
O16         O  0.08571663  0.99547989  0.02895267    -0.79800
O17         O  0.04414956  0.99192893  0.07346118    -0.79900
O18         O  0.99449543  0.93341713  0.43692449    -0.79800
O19         O  0.08815202  0.05483304  0.47308902    -0.79800
O20         O  0.93147512  0.90059934  0.02386481    -0.79900
Co21       Co  0.99300345  0.00855950  0.44430566     1.51500
Co22       Co  0.00245354  0.00237901  0.03761343     1.51700
Co23       Co  0.95177409  0.95608495  0.00213412     1.51600
Co24       Co  0.03459137  0.05552693  0.50693408     1.51500
O25         O  0.98324030  0.01320984  0.49107094    -1.41800
C26         C  0.09917776  0.02151047  0.45146279     1.09800
C27         C  0.97067837  0.89147989  0.04182680     1.09900
C28         C  0.01280364  0.89599727  0.45433862     1.09800
C29         C  0.08717345  0.98668551  0.05860735     1.09800
N30         N  0.01106129  0.42653472  0.25756427    -0.36300
N31         N  0.01958269  0.50135348  0.20782314    -0.56900
N32         N  0.02899406  0.57972184  0.25413313    -0.36300
N33         N  0.02702128  0.50339093  0.30371134    -0.56900
C34         C  0.01732468  0.39379944  0.23278563     0.27300
C35         C  0.01508029  0.39662934  0.28342597     0.27300
C36         C  0.03519354  0.60681409  0.22805409     0.27300
C37         C  0.04351357  0.60657128  0.27841327     0.27300
C38         C  0.01004550  0.46086748  0.19058182     0.35900
C39         C  0.01289790  0.54364328  0.18903849     0.35900
C40         C  0.01412246  0.46698305  0.32302585     0.35900
C41         C  0.02808446  0.54630762  0.32120784     0.35900
C42         C  0.02441444  0.34247194  0.24308822    -0.21600
C43         C  0.02253472  0.34428028  0.27494009    -0.21600
C44         C  0.05360090  0.65163680  0.23593391    -0.21600
C45         C  0.05883701  0.65147739  0.26762847    -0.21600
C46         C  0.99838766  0.47722231  0.16047195    -0.22600
C47         C  0.99925543  0.52975151  0.15963713    -0.22600
C48         C  0.00826622  0.48647422  0.35302497    -0.22600
C49         C  0.01711603  0.53662850  0.35187357    -0.22600
C50         C  0.01389076  0.40877957  0.20112861    -0.18000
C51         C  0.00993249  0.41545781  0.31440214    -0.18000
C52         C  0.03918590  0.59418955  0.31020896    -0.18000
C53         C  0.02211762  0.59380778  0.19750058    -0.18000
H54         H  0.02954380  0.30726146  0.22913688     0.14900
H55         H  0.02622513  0.31068912  0.29000842     0.14900
H56         H  0.06190627  0.68171161  0.22049125     0.14900
H57         H  0.07149497  0.68160807  0.28124039     0.14900
H58         H  0.98980282  0.45390508  0.14110110     0.13200
H59         H  0.99167551  0.55453257  0.13945769     0.13200
H60         H  0.99877289  0.46665537  0.37367990     0.13200
H61         H  0.01525858  0.56307464  0.37140793     0.13200
H62         H  0.99932217  0.46648934  0.25691078     0.26500
H63         H  0.01006100  0.54865372  0.25561179     0.26500
N64         N  0.41797865  0.98005927  0.24512081    -0.36300
N65         N  0.49492600  0.98918378  0.19718890    -0.56900
N66         N  0.57176936  0.99408317  0.24481974    -0.36300
N67         N  0.49407206  0.98934423  0.29268289    -0.56900
C68         C  0.38742751  0.98564632  0.21966685     0.27300
C69         C  0.38593359  0.99054652  0.27016128     0.27300
C70         C  0.59630981  0.01003598  0.21990427     0.27300
C71         C  0.59719923  0.00585685  0.27027713     0.27300
C72         C  0.45717900  0.97680059  0.17895801     0.35900
C73         C  0.53735713  0.98819482  0.17884474     0.35900
C74         C  0.45415376  0.98162538  0.31108515     0.35900
C75         C  0.53686703  0.98345459  0.31075532     0.35900
C76         C  0.33529428  0.99851705  0.22867593    -0.21600
C77         C  0.33437203  0.00190362  0.26046297    -0.21600
C78         C  0.63787112  0.03199800  0.22970002    -0.21600
C79         C  0.63853012  0.02919684  0.26149226    -0.21600
C80         C  0.47557797  0.96832812  0.14879415    -0.22600
C81         C  0.52639609  0.97570488  0.14871158    -0.22600
C82         C  0.47151973  0.97139999  0.34113068    -0.22600
C83         C  0.52411899  0.97201110  0.34085064    -0.22600
C84         C  0.40506015  0.97765104  0.18856870    -0.18000
C85         C  0.40158653  0.98766400  0.30160335    -0.18000
C86         C  0.58583247  0.99361021  0.30112812    -0.18000
C87         C  0.58453262  0.00206212  0.18852665    -0.18000
H88         H  0.30128994  0.00495509  0.21391718     0.14900
H89         H  0.29953482  0.01118089  0.27478999     0.14900
H90         H  0.66530892  0.04783658  0.21540735     0.14900
H91         H  0.66638172  0.04267342  0.27644458     0.14900
H92         H  0.45424210  0.95900069  0.12880490     0.13200
H93         H  0.55204229  0.97301777  0.12869042     0.13200
H94         H  0.44862329  0.96477720  0.36122548     0.13200
H95         H  0.54963515  0.96642507  0.36072678     0.13200
H96         H  0.45781430  0.96488132  0.24539426     0.26500
H97         H  0.54370446  0.97085667  0.24441283     0.26500
C98         C  0.31218236  0.92406867  0.13515516    -0.22200
C99         C  0.28280314  0.97054179  0.12326474     0.09800
C100        C  0.29516880  0.01910376  0.13184480     0.10200
C101        C  0.33720793  0.01990916  0.15183739    -0.17100
C102        C  0.36550693  0.97353797  0.16451858    -0.27500
C103        C  0.35306064  0.92495370  0.15599064     0.18500
C104        C  0.23493706  0.96796429  0.10552366     0.12500
C105        C  0.26220396  0.07014879  0.12144794    -0.11900
H106        H  0.34652169  0.05701852  0.15886722     0.12800
C107        C  0.38095742  0.87363565  0.16913151    -0.22700
H108        H  0.30179379  0.88698516  0.12906598     0.08400
C109        C  0.23280858  0.97231787  0.07302238     0.04800
C110        C  0.18447695  0.97555730  0.05814735    -0.19900
C111        C  0.13828661  0.97361612  0.07499411    -0.12200
C112        C  0.14199614  0.96445133  0.10746627     0.13500
C113        C  0.19017579  0.96229218  0.12216163    -0.22600
C114        C  0.28145697  0.97320856  0.05410426    -0.05700
H115        H  0.18271921  0.98115416  0.03328730     0.15000
C116        C  0.09597822  0.95717852  0.12724359    -0.15900
H117        H  0.19280394  0.95749079  0.14708046     0.09300
H118        H  0.39892765  0.84757026  0.14997434     0.07200
H119        H  0.35241001  0.85450606  0.18167474     0.08400
H120        H  0.41234788  0.87816327  0.18549890     0.07400
H121        H  0.22124424  0.07274648  0.12954997     0.02300
H122        H  0.26272118  0.07288681  0.09584563     0.02800
H123        H  0.27667792  0.10434230  0.13095286     0.06300
H124        H  0.27302313  0.97600665  0.02891273     0.05300
H125        H  0.31046750  0.93664847  0.05816761    -0.00500
H126        H  0.29896314  0.00714284  0.06075442     0.01000
H127        H  0.10761814  0.94682474  0.15147746     0.04600
H128        H  0.07847817  0.92491222  0.11773963     0.06600
H129        H  0.06634352  0.99389951  0.12827652     0.07500
C130        C  0.18633625  0.01082348  0.38011501    -0.22200
C131        C  0.23565744  0.00800856  0.39319688     0.09800
C132        C  0.24026496  0.01247196  0.42563110     0.10200
C133        C  0.19499806  0.01866955  0.44441520    -0.17100
C134        C  0.14565985  0.01965542  0.43130456    -0.27500
C135        C  0.14128136  0.01655320  0.39864341     0.18500
C136        C  0.28124638  0.00186377  0.37186364     0.12500
C137        C  0.29287416  0.01016000  0.44027865    -0.11900
H138        H  0.19827689  0.02124555  0.46936341     0.12800
C139        C  0.08905664  0.02073011  0.38294306    -0.22700
H140        H  0.18322466  0.00825028  0.35514759     0.08400
C141        C  0.30745760  0.95205536  0.36162197     0.04800
C142        C  0.34712099  0.94850755  0.33904137    -0.19900
C143        C  0.36024735  0.99366116  0.32607159    -0.12200
C144        C  0.33335254  0.04353764  0.33604915     0.13500
C145        C  0.29442473  0.04693672  0.35897615    -0.22600
C146        C  0.29266159  0.90283114  0.37398498    -0.05700
H147        H  0.36746814  0.91043013  0.33106625     0.15000
C148        C  0.34380437  0.09385427  0.32251745    -0.15900
H149        H  0.27321120  0.08508655  0.36631894     0.09300
H150        H  0.09293358  0.02136482  0.35731522     0.07200
H151        H  0.06251406  0.05751303  0.39019646     0.08400
H152        H  0.07119628  0.98663952  0.38888852     0.07400
H153        H  0.31108123  0.04226970  0.43113756     0.02300
H154        H  0.31871516  0.97202901  0.43484294     0.02800
H155        H  0.28964269  0.01432817  0.46587007     0.06300
H156        H  0.31690034  0.86719744  0.36344093     0.05300
H157        H  0.25104182  0.90272463  0.36872956    -0.00500
H158        H  0.29821148  0.90079830  0.39943997     0.01000
H159        H  0.30759265  0.11554865  0.31158695     0.04600
H160        H  0.37525092  0.08763158  0.30471053     0.06600
H161        H  0.35553097  0.11841188  0.34123127     0.07500
C162        C  0.79309568  0.04071220  0.11593060    -0.22200
C163        C  0.74919714  0.02659986  0.10240450     0.09800
C164        C  0.74957263  0.01580733  0.07042350     0.10200
C165        C  0.79546023  0.01556454  0.05306881    -0.17100
C166        C  0.84131054  0.02573199  0.06696098    -0.27500
C167        C  0.83907638  0.04068048  0.09871051     0.18500
C168        C  0.70517891  0.01925358  0.12282232     0.12500
C169        C  0.70196888  0.00319603  0.05485806    -0.11900
H170        H  0.79597431  0.00511702  0.02875395     0.12800
C171        C  0.88455731  0.05659177  0.11488653    -0.22700
H172        H  0.79192459  0.04993143  0.14046190     0.08400
C173        C  0.70610283  0.97125949  0.13817906     0.04800
C174        C  0.66561995  0.96656901  0.15895286    -0.19900
C175        C  0.62421124  0.00870843  0.16465388    -0.12200
C176        C  0.62277871  0.05653396  0.14886363     0.13500
C177        C  0.66338499  0.06118704  0.12808396    -0.22600
C178        C  0.75011208  0.92517179  0.13280671    -0.05700
H179        H  0.66653453  0.93008831  0.17117603     0.15000
C180        C  0.57968580  0.10354260  0.15388483    -0.15900
H181        H  0.66289657  0.09798810  0.11628956     0.09300
H182        H  0.91754996  0.02273605  0.11672342     0.07200
H183        H  0.87413961  0.07091708  0.13880680     0.08400
H184        H  0.89690922  0.08885101  0.10181387     0.07400
H185        H  0.66864813  0.03666141  0.05766641     0.02300
H186        H  0.69143743  0.96781892  0.06547443     0.02800
H187        H  0.70874689  0.99561565  0.02968399     0.06300
H188        H  0.74470513  0.89058658  0.14655634     0.05300
H189        H  0.78784081  0.93554392  0.13958337    -0.00500
H190        H  0.75198564  0.91399342  0.10793300     0.01000
H191        H  0.59661866  0.13678632  0.16254832     0.04600
H192        H  0.54976241  0.09639537  0.17086060     0.06600
H193        H  0.55977825  0.11481016  0.13157911     0.07500
C194        C  0.76085054  0.95971336  0.41361980    -0.22200
C195        C  0.75429651  0.99244152  0.38764886     0.09800
C196        C  0.79076693  0.02463522  0.38149105     0.10200
C197        C  0.83310366  0.02327201  0.40143672    -0.17100
C198        C  0.84092265  0.98972140  0.42729390    -0.27500
C199        C  0.80392389  0.95733946  0.43338659     0.18500
C200        C  0.71002326  0.99116246  0.36649533     0.12500
C201        C  0.78605251  0.05929790  0.35330549    -0.11900
H202        H  0.86100762  0.04795244  0.39615114     0.12800
C203        C  0.80910894  0.91994693  0.46030644    -0.22700
H204        H  0.73243958  0.93517504  0.41808079     0.08400
C205        C  0.71038048  0.94877956  0.34598134     0.04800
C206        C  0.66867074  0.95028096  0.32544684    -0.19900
C207        C  0.62718208  0.99350963  0.32463050    -0.12200
C208        C  0.62713728  0.03624271  0.34490193     0.13500
C209        C  0.66825104  0.03414363  0.36591939    -0.22600
C210        C  0.75549141  0.90280959  0.34506951    -0.05700
H211        H  0.66875385  0.91800945  0.30952197     0.15000
C212        C  0.58528530  0.08507754  0.34435520    -0.15900
H213        H  0.66838033  0.06683007  0.38150843     0.09300
H214        H  0.84518215  0.88959293  0.45758857     0.07200
H215        H  0.77565338  0.89930621  0.46178378     0.08400
H216        H  0.81028251  0.94163740  0.48236464     0.07400
H217        H  0.74915758  0.08879883  0.35448628     0.02300
H218        H  0.78621231  0.03515985  0.33205326     0.02800
H219        H  0.81893778  0.08066611  0.35146484     0.06300
H220        H  0.75014741  0.87388421  0.32701554     0.05300
H221        H  0.75906305  0.88254339  0.36774923    -0.00500
H222        H  0.79234441  0.91660701  0.33983658     0.01000
H223        H  0.56552259  0.09079253  0.36731649     0.04600
H224        H  0.55510421  0.08379844  0.32658394     0.06600
H225        H  0.60345360  0.11939177  0.33930648     0.07500
C226        C  0.00960074  0.19617754  0.12222128    -0.22200
C227        C  0.01802287  0.24380974  0.11048871     0.09800
C228        C  0.03037533  0.24774372  0.07884411     0.10200
C229        C  0.03370268  0.20362797  0.05953962    -0.17100
C230        C  0.02472320  0.15568456  0.07112969    -0.27500
C231        C  0.01284932  0.15203711  0.10315227     0.18500
C232        C  0.01614520  0.28800662  0.13240250     0.12500
C233        C  0.03996254  0.29845520  0.06553529    -0.11900
H234        H  0.04324656  0.20662724  0.03521880     0.12800
C235        C  0.00607899  0.10233516  0.11893057    -0.22700
H236        H  0.00114427  0.19323253  0.14673015     0.08400
C237        C  0.96826515  0.31872131  0.14254290     0.04800
C238        C  0.96857178  0.35787347  0.16496174    -0.19900
C239        C  0.01571545  0.36689419  0.17734617    -0.12200
C240        C  0.06364869  0.33610282  0.16704018     0.13500
C241        C  0.06317989  0.29697769  0.14474106    -0.22600
C242        C  0.91705197  0.31015760  0.12963272    -0.05700
H243        H  0.93198395  0.38158861  0.17292296     0.15000
C244        C  0.11588723  0.34312849  0.17923597    -0.15900
H245        H  0.09980951  0.27284090  0.13713270     0.09300
H246        H  0.96813635  0.10904788  0.13155635     0.07200
H247        H  0.03786069  0.09087541  0.13600885     0.08400
H248        H  0.00677778  0.06943837  0.10290742     0.07400
H249        H  0.07375210  0.31010980  0.07723294     0.02300
H250        H  0.00472162  0.32957865  0.06905835     0.02800
H251        H  0.04871999  0.29501739  0.04031462     0.06300
H252        H  0.88334628  0.33802172  0.13972117     0.05300
H253        H  0.91169670  0.26980971  0.13488545    -0.00500
H254        H  0.91682823  0.31571559  0.10413829     0.01000
H255        H  0.13580368  0.30625092  0.19031658     0.04600
H256        H  0.11274119  0.37504325  0.19657297     0.06600
H257        H  0.14055675  0.35240762  0.15974974     0.07500
C258        C  0.94477159  0.34682198  0.37732881    -0.22200
C259        C  0.98690135  0.30870406  0.38736153     0.09800
C260        C  0.03645058  0.30512014  0.37298989     0.10200
C261        C  0.04313786  0.34126566  0.34991643    -0.17100
C262        C  0.00081048  0.37886471  0.33951545    -0.27500
C263        C  0.95088060  0.38147235  0.35331026     0.18500
C264        C  0.97658395  0.26760289  0.40902959     0.13000
C265        C  0.08145158  0.26123867  0.38051967    -0.11900
H266        H  0.08117492  0.33912907  0.33910977     0.12800
C267        C  0.90306040  0.41952700  0.34283683    -0.22700
H268        H  0.90639885  0.34832371  0.38758781     0.08400
C269        C  0.99408890  0.26400245  0.43997878     0.04800
C270        C  0.99278696  0.21799062  0.45688521    -0.19900
C271        C  0.97309303  0.17636964  0.44363148    -0.12200
C272        C  0.94888496  0.18380162  0.41413464     0.13500
C273        C  0.95160446  0.22899712  0.39719173    -0.22600
C274        C  0.01360958  0.30868840  0.45509937    -0.05700
H275        H  0.00954754  0.21355988  0.47983493     0.15000
C276        C  0.92023816  0.14441938  0.39999671    -0.15900
H277        H  0.93625104  0.23316983  0.37386203     0.09300
H278        H  0.88692016  0.44543151  0.36247124     0.07200
H279        H  0.87295835  0.39754678  0.33504368     0.08400
H280        H  0.91113059  0.44454469  0.32337362     0.07400
H281        H  0.07023924  0.22299712  0.37569156     0.02300
H282        H  0.09218879  0.26276882  0.40522374     0.02800
H283        H  0.11674143  0.26341038  0.36637896     0.06300
H284        H  0.02516916  0.29968082  0.47949539     0.05300
H285        H  0.98206570  0.34411025  0.45505199    -0.00500
H286        H  0.04795632  0.31755099  0.44243074     0.01000
H287        H  0.89830324  0.16017395  0.37901943     0.04600
H288        H  0.89151587  0.13436662  0.41694398     0.06600
H289        H  0.94802704  0.10858678  0.39266752     0.07500
C290        C  0.04224382  0.67410661  0.12550218    -0.22200
C291        C  0.00277199  0.71863606  0.12978012     0.09800
C292        C  0.97002919  0.72186974  0.15626571     0.10200
C293        C  0.97690526  0.68017992  0.17738592    -0.17100
C294        C  0.01682904  0.63587498  0.17341069    -0.27500
C295        C  0.05065445  0.63339126  0.14733462     0.18500
C296        C  0.99635222  0.76147374  0.10639221     0.12500
C297        C  0.92880084  0.76990101  0.16284930    -0.11900
H298        H  0.95138417  0.68239833  0.19749183     0.12800
C299        C  0.09661987  0.58920157  0.14210343    -0.22700
H300        H  0.06734644  0.67148638  0.10519137     0.08400
C301        C  0.03376303  0.79362813  0.10248782     0.04800
C302        C  0.02475526  0.83454274  0.08078141    -0.19900
C303        C  0.97872026  0.84514285  0.06305183    -0.12200
C304        C  0.94093384  0.81287540  0.06740049     0.13500
C305        C  0.95095179  0.77106818  0.08846544    -0.22600
C306        C  0.08251998  0.78593175  0.12185389    -0.05700
H307        H  0.05376880  0.85893118  0.07809394     0.15000
C308        C  0.88912178  0.82246234  0.05091878    -0.15900
H309        H  0.92252896  0.74607078  0.09150148     0.09300
H310        H  0.10227964  0.56045064  0.16123381     0.07200
H311        H  0.09108353  0.56837186  0.12027322     0.08400
H312        H  0.13296323  0.60528474  0.14007572     0.07400
H313        H  0.89875532  0.77533683  0.14448140     0.02300
H314        H  0.94721638  0.80491371  0.16388142     0.02800
H315        H  0.90856978  0.76686335  0.18531491     0.06300
H316        H  0.10643078  0.81595283  0.11682088     0.05300
H317        H  0.10717263  0.74697640  0.11702874    -0.00500
H318        H  0.07169643  0.78879085  0.14680998     0.01000
H319        H  0.89544669  0.81821248  0.02553928     0.04600
H320        H  0.86685675  0.86223713  0.05661251     0.06600
H321        H  0.86445178  0.79410194  0.05798383     0.07500
C322        C  0.02864100  0.75322965  0.43043720    -0.22200
C323        C  0.05261619  0.75462909  0.40131200     0.09800
C324        C  0.06981000  0.80039887  0.39198747     0.10200
C325        C  0.06079207  0.84439648  0.41151708    -0.17100
C326        C  0.03349427  0.84445959  0.43974482    -0.27500
C327        C  0.01846315  0.79777371  0.44972048     0.18500
C328        C  0.05060085  0.71187791  0.37885972     0.12500
C329        C  0.09425440  0.80419634  0.36050934    -0.11900
H330        H  0.07213422  0.88022075  0.40376658     0.12800
C331        C  0.98803546  0.79588817  0.47931225    -0.22700
H332        H  0.01482790  0.71816211  0.43717974     0.08400
C333        C  0.09355808  0.67078029  0.37302837     0.04800
C334        C  0.08928454  0.63324967  0.35014069    -0.19900
C335        C  0.04269340  0.63559685  0.33353565    -0.12200
C336        C  0.99927567  0.67589507  0.34020235     0.13500
C337        C  0.00399850  0.71369874  0.36255991    -0.22600
C338        C  0.14312462  0.66585055  0.39142357    -0.05700
H339        H  0.12207447  0.60163105  0.34537603     0.15000
C340        C  0.94716531  0.67980691  0.32452413    -0.15900
H341        H  0.97090165  0.74502510  0.36737008     0.09300
H342        H  0.97794743  0.75682997  0.48306082     0.07200
H343        H  0.95097646  0.82520749  0.47844156     0.08400
H344        H  0.01170507  0.80432631  0.49926163     0.07400
H345        H  0.06660008  0.79759291  0.34216032     0.02300
H346        H  0.13076254  0.77447353  0.35814671     0.02800
H347        H  0.10422816  0.84329280  0.35668111     0.06300
H348        H  0.17258871  0.63107577  0.38415736     0.05300
H349        H  0.13424304  0.66174971  0.41638297    -0.00500
H350        H  0.16067187  0.70102023  0.38827851     0.01000
H351        H  0.91650423  0.67793108  0.34225652     0.04600
H352        H  0.94644089  0.64804302  0.30751457     0.06600
H353        H  0.93719990  0.71772932  0.31217263     0.07500
O354        O  0.91629515  0.02342867  0.94030508    -0.79800
O355        O  0.99466061  0.08234417  0.54807052    -0.79900
O356        O  0.89077829  0.00411436  0.52019478    -0.79900
O357        O  0.99044317  0.11833597  0.98737993    -0.79800
O358        O  0.93531168  0.01157234  0.56129211    -0.79900
O359        O  0.99227341  0.08435201  0.94043961    -0.79900
O360        O  0.06804374  0.10179056  0.53041013    -0.79800
O361        O  0.90387639  0.95324429  0.96595694    -0.79900
C362        C  0.88887756  0.98905189  0.94595739     1.09900
C363        C  0.03008243  0.11086660  0.54946905     1.09700
C364        C  0.89133700  0.01487739  0.54861950     1.09900
C365        C  0.98460992  0.12363647  0.95833273     1.09800
O366        O  0.06954690  0.98968205  0.94584832    -0.79800
O367        O  0.00601683  0.92149219  0.54044967    -0.79900
O368        O  0.01047623  0.90298339  0.98315689    -0.79800
O369        O  0.08587207  0.99582594  0.52898206    -0.79800
O370        O  0.04437968  0.99227743  0.57351081    -0.79900
O371        O  0.99439474  0.93329265  0.93687537    -0.79800
O372        O  0.08816177  0.05455580  0.97305979    -0.79800
O373        O  0.93183943  0.90068966  0.52400449    -0.79900
Co374      Co  0.99291921  0.00844031  0.94425018     1.51500
Co375      Co  0.00261882  0.00260200  0.53767354     1.51700
Co376      Co  0.95200690  0.95614760  0.50220128     1.51600
Co377      Co  0.03457284  0.05528260  0.00689717     1.51500
O378        O  0.98309014  0.01311092  0.99101943    -1.41800
C379        C  0.09911399  0.02127131  0.95141059     1.09800
C380        C  0.97105685  0.89170252  0.54196375     1.09900
C381        C  0.01273918  0.89591577  0.95431256     1.09800
C382        C  0.08738257  0.98701911  0.55863364     1.09800
N383        N  0.01112874  0.42673229  0.75748929    -0.36300
N384        N  0.01970132  0.50165141  0.70779806    -0.56900
N385        N  0.02923859  0.57986793  0.75416599    -0.36300
N386        N  0.02730122  0.50342281  0.80367513    -0.56900
C387        C  0.01699693  0.39409686  0.73267548     0.27300
C388        C  0.01493898  0.39676214  0.78331482     0.27300
C389        C  0.03577366  0.60684435  0.72809846     0.27300
C390        C  0.04403398  0.60651372  0.77844754     0.27300
C391        C  0.01002399  0.46125864  0.69052714     0.35900
C392        C  0.01306266  0.54399005  0.68905519     0.35900
C393        C  0.01471285  0.46687735  0.82300485     0.35900
C394        C  0.02862493  0.54622501  0.82122038     0.35900
C395        C  0.02356997  0.34276672  0.74291832    -0.21600
C396        C  0.02180183  0.34447649  0.77476567    -0.21600
C397        C  0.05467272  0.65138182  0.73598471    -0.21600
C398        C  0.05985055  0.65117848  0.76767957    -0.21600
C399        C  0.99832081  0.47772549  0.66044045    -0.22600
C400        C  0.99928274  0.53023682  0.65965568    -0.22600
C401        C  0.00936109  0.48615683  0.85305998    -0.22600
C402        C  0.01815437  0.53633327  0.85192752    -0.22600
C403        C  0.01371788  0.40916970  0.70103395    -0.18000
C404        C  0.01023984  0.41545096  0.81432613    -0.18000
C405        C  0.03962492  0.59414789  0.81023086    -0.18000
C406        C  0.02252643  0.59403696  0.69755115    -0.18000
H407        H  0.02828389  0.30761642  0.72893159     0.14900
H408        H  0.02518461  0.31084945  0.78978828     0.14900
H409        H  0.06335311  0.68129309  0.72054182     0.14900
H410        H  0.07286231  0.68109472  0.78130180     0.14900
H411        H  0.98962106  0.45450323  0.64105523     0.13200
H412        H  0.99169505  0.55508941  0.63950712     0.13200
H413        H  0.00022405  0.46618631  0.87373752     0.13200
H414        H  0.01664440  0.56263217  0.87150901     0.13200
H415        H  0.99986900  0.46678163  0.75687727     0.26500
H416        H  0.00984006  0.54908232  0.75564077     0.26500
N417        N  0.41797215  0.98042518  0.74496652    -0.36300
N418        N  0.49515081  0.98934633  0.69714484    -0.56900
N419        N  0.57180629  0.99415541  0.74487732    -0.36300
N420        N  0.49387262  0.98960938  0.79263815    -0.56900
C421        C  0.38754371  0.98587811  0.71946748     0.27300
C422        C  0.38582422  0.99088824  0.76996019     0.27300
C423        C  0.59642150  0.01015190  0.72001059     0.27300
C424        C  0.59707670  0.00599377  0.77037586     0.27300
C425        C  0.45745210  0.97704664  0.67884729     0.35900
C426        C  0.53763473  0.98838285  0.67885308     0.35900
C427        C  0.45389550  0.98182229  0.81096863     0.35900
C428        C  0.53664100  0.98348205  0.81074027     0.35900
C429        C  0.33536741  0.99866408  0.72839880    -0.21600
C430        C  0.33430304  0.00212809  0.76018533    -0.21600
C431        C  0.63788016  0.03220238  0.72987732    -0.21600
C432        C  0.63838579  0.02942428  0.76166874    -0.21600
C433        C  0.47592824  0.96868143  0.64869184    -0.22600
C434        C  0.52675111  0.97602377  0.64868488    -0.22600
C435        C  0.47120142  0.97131216  0.84100212    -0.22600
C436        C  0.52382667  0.97180714  0.84078291    -0.22600
C437        C  0.40532443  0.97782444  0.68839798    -0.18000
C438        C  0.40135344  0.98798264  0.80142534    -0.18000
C439        C  0.58562301  0.99367810  0.80119599    -0.18000
C440        C  0.58478397  0.00217859  0.68861697    -0.18000
H441        H  0.30142399  0.00497399  0.71358788     0.14900
H442        H  0.29939839  0.01133095  0.77446351     0.14900
H443        H  0.66533942  0.04810323  0.71563217     0.14900
H444        H  0.66612771  0.04297107  0.77667366     0.14900
H445        H  0.45464103  0.95944891  0.62865947     0.13200
H446        H  0.55244940  0.97340660  0.62869068     0.13200
H447        H  0.44825911  0.96454734  0.86104709     0.13200
H448        H  0.54932024  0.96598793  0.86066531     0.13200
H449        H  0.45785979  0.96529176  0.74529915     0.26500
H450        H  0.54377833  0.97082723  0.74442053     0.26500
C451        C  0.31269849  0.92389283  0.63499511    -0.22200
C452        C  0.28329326  0.97030539  0.62304188     0.09800
C453        C  0.29566317  0.01891547  0.63151188     0.10200
C454        C  0.33763742  0.01984556  0.65152581    -0.17100
C455        C  0.36591126  0.97355347  0.66429993    -0.27500
C456        C  0.35358551  0.92490212  0.65580744     0.18500
C457        C  0.23537900  0.96768146  0.60536435     0.12500
C458        C  0.26276176  0.06990005  0.62097286    -0.11900
H459        H  0.34691605  0.05699829  0.65849905     0.12800
C460        C  0.38165388  0.87364740  0.66894577    -0.22700
H461        H  0.30234293  0.88677055  0.62896306     0.08400
C462        C  0.23315631  0.97196793  0.57286355     0.04800
C463        C  0.18473399  0.97544768  0.55805752    -0.19900
C464        C  0.13853767  0.97381983  0.57497559    -0.12200
C465        C  0.14231543  0.96475333  0.60745659     0.13500
C466        C  0.19059732  0.96232305  0.62207787    -0.22600
C467        C  0.28179863  0.97255161  0.55387763    -0.05700
H468        H  0.18291968  0.98097776  0.53319332     0.15000
C469        C  0.09625419  0.95793494  0.62732884    -0.15900
H470        H  0.19328526  0.95761896  0.64700125     0.09300
H471        H  0.39960212  0.84758851  0.64977937     0.07200
H472        H  0.35322781  0.85445176  0.68155277     0.08400
H473        H  0.41309824  0.87828118  0.68525060     0.07400
H474        H  0.22178259  0.07260222  0.62906214     0.02300
H475        H  0.26333238  0.07243664  0.59536280     0.02800
H476        H  0.27725679  0.10414717  0.63038347     0.06300
H477        H  0.27328111  0.97536989  0.52869681     0.05300
H478        H  0.31063987  0.93586624  0.55792672    -0.00500
H479        H  0.29955471  0.00634695  0.56048029     0.01000
H480        H  0.10790830  0.94769952  0.65157497     0.04600
H481        H  0.07848754  0.92575816  0.61794802     0.06600
H482        H  0.06683525  0.99481436  0.62829650     0.07500
C483        C  0.18616820  0.01029084  0.87999735    -0.22200
C484        C  0.23546498  0.00788419  0.89302978     0.09800
C485        C  0.24008361  0.01271897  0.92544011     0.10200
C486        C  0.19486373  0.01880534  0.94425938    -0.17100
C487        C  0.14555044  0.01940496  0.93120474    -0.27500
C488        C  0.14114944  0.01600228  0.89855483     0.18500
C489        C  0.28099782  0.00186521  0.87166129     0.12500
C490        C  0.29265778  0.01095133  0.94002319    -0.11900
H491        H  0.19816284  0.02164668  0.96919370     0.12800
C492        C  0.08893082  0.01990603  0.88288339    -0.22700
H493        H  0.18304126  0.00747258  0.85504214     0.08400
C494        C  0.30733931  0.95210526  0.86142066     0.04800
C495        C  0.34696792  0.94867027  0.83882802    -0.19900
C496        C  0.35994099  0.99388483  0.82584775    -0.12200
C497        C  0.33289552  0.04371238  0.83581283     0.13500
C498        C  0.29400256  0.04700032  0.85875329    -0.22600
C499        C  0.29274989  0.90280932  0.87381750    -0.05700
H500        H  0.36743277  0.91062910  0.83086569     0.15000
C501        C  0.34315796  0.09408991  0.82226725    -0.15900
H502        H  0.27268649  0.08510890  0.86609575     0.09300
H503        H  0.09278054  0.02039782  0.85725110     0.07200
H504        H  0.06229012  0.05667096  0.89006954     0.08400
H505        H  0.07119937  0.98577140  0.88891575     0.07400
H506        H  0.31056343  0.04317182  0.93074763     0.02300
H507        H  0.31874409  0.97291759  0.93467760     0.02800
H508        H  0.28944935  0.01533663  0.96560440     0.06300
H509        H  0.31710772  0.86722474  0.86329153     0.05300
H510        H  0.25116164  0.90252915  0.86856978    -0.00500
H511        H  0.29831156  0.90085134  0.89927370     0.01000
H512        H  0.30688377  0.11567329  0.81134840     0.04600
H513        H  0.37458428  0.08795755  0.80444847     0.06600
H514        H  0.35481358  0.11871111  0.84097136     0.07500
C515        C  0.79306672  0.04143934  0.61585665    -0.22200
C516        C  0.74945509  0.02648344  0.60248688     0.09800
C517        C  0.75009026  0.01470457  0.57062663     0.10200
C518        C  0.79596411  0.01440398  0.55326325    -0.17100
C519        C  0.84153176  0.02552304  0.56702016    -0.27500
C520        C  0.83903609  0.04135781  0.59861482     0.18500
C521        C  0.70550641  0.01925377  0.62297468     0.12500
C522        C  0.70274602  0.00122915  0.55519617    -0.11900
H523        H  0.79669566  0.00322010  0.52906203     0.12800
C524        C  0.88421905  0.05820089  0.61458288    -0.22700
H525        H  0.79169497  0.05137593  0.64029194     0.08400
C526        C  0.70633111  0.97123550  0.63828099     0.04800
C527        C  0.66585304  0.96660446  0.65906592    -0.19900
C528        C  0.62454356  0.00881928  0.66480734    -0.12200
C529        C  0.62321663  0.05667459  0.64907395     0.13500
C530        C  0.66384809  0.06128820  0.62831029    -0.22600
C531        C  0.75025495  0.92507888  0.63286751    -0.05700
H532        H  0.66667365  0.93010095  0.67124790     0.15000
C533        C  0.58017593  0.10372586  0.65411118    -0.15900
H534        H  0.66344511  0.09810336  0.61654881     0.09300
H535        H  0.91745415  0.02465266  0.61673531     0.07200
H536        H  0.87359744  0.07314028  0.63836272     0.08400
H537        H  0.89631193  0.09024503  0.60117110     0.07400
H538        H  0.66921059  0.03456617  0.55765430     0.02300
H539        H  0.69240982  0.96605307  0.56617333     0.02800
H540        H  0.70972234  0.99292937  0.53010458     0.06300
H541        H  0.74482764  0.89051977  0.64663447     0.05300
H542        H  0.78803610  0.93539115  0.63959126    -0.00500
H543        H  0.75204349  0.91387418  0.60800076     0.01000
H544        H  0.59714406  0.13689645  0.66284913     0.04600
H545        H  0.55017507  0.09657048  0.67103268     0.06600
H546        H  0.56034680  0.11510578  0.63179599     0.07500
C547        C  0.76073846  0.95979843  0.91353467    -0.22200
C548        C  0.75418311  0.99255037  0.88758023     0.09800
C549        C  0.79070962  0.02465216  0.88137471     0.10200
C550        C  0.83309260  0.02322704  0.90129082    -0.17100
C551        C  0.84087596  0.98969623  0.92715992    -0.27500
C552        C  0.80384860  0.95735489  0.93327044     0.18500
C553        C  0.70989880  0.99128549  0.86645604     0.12500
C554        C  0.78597020  0.05928937  0.85317923    -0.11900
H555        H  0.86104042  0.04785184  0.89598376     0.12800
C556        C  0.80904447  0.91992351  0.96017251    -0.22700
H557        H  0.73230720  0.93528267  0.91799819     0.08400
C558        C  0.71043334  0.94907715  0.84579595     0.04800
C559        C  0.66864675  0.95050753  0.82533620    -0.19900
C560        C  0.62692009  0.99352460  0.82472887    -0.12200
C561        C  0.62670939  0.03611184  0.84513903     0.13500
C562        C  0.66791645  0.03406888  0.86608407    -0.22600
C563        C  0.75582331  0.90339512  0.84465050    -0.05700
H564        H  0.66887261  0.91837623  0.80928771     0.15000
C565        C  0.58459767  0.08475066  0.84480631    -0.15900
H566        H  0.66795005  0.06664320  0.88177335     0.09300
H567        H  0.84509980  0.88955298  0.95742577     0.07200
H568        H  0.77557716  0.89929955  0.96165054     0.08400
H569        H  0.81025366  0.94157772  0.98224283     0.07400
H570        H  0.74907701  0.08879535  0.85437694     0.02300
H571        H  0.78607458  0.03513697  0.83193681     0.02800
H572        H  0.81887205  0.08063020  0.85130786     0.06300
H573        H  0.75057581  0.87456455  0.82651864     0.05300
H574        H  0.75972115  0.88291474  0.86726273    -0.00500
H575        H  0.79247382  0.91755188  0.83938591     0.01000
H576        H  0.56495677  0.09012375  0.86781235     0.04600
H577        H  0.55435654  0.08346173  0.82707491     0.06600
H578        H  0.60249759  0.11926929  0.83984220     0.07500
C579        C  0.00918100  0.19653102  0.62221002    -0.22200
C580        C  0.01775766  0.24411869  0.61050267     0.09800
C581        C  0.03028325  0.24803093  0.57888525     0.10200
C582        C  0.03359029  0.20393874  0.55956797    -0.17100
C583        C  0.02450199  0.15601922  0.57113405    -0.27500
C584        C  0.01248520  0.15238966  0.60313903     0.18500
C585        C  0.01591973  0.28828735  0.63241711     0.12500
C586        C  0.04014801  0.29868020  0.56563287    -0.11900
H587        H  0.04325744  0.20692288  0.53526421     0.12800
C588        C  0.00567207  0.10269868  0.61891256    -0.22700
H589        H  0.00060745  0.19360863  0.64670537     0.08400
C590        C  0.96807927  0.31936334  0.64231978     0.04800
C591        C  0.96840282  0.35859613  0.66467906    -0.19900
C592        C  0.01552786  0.36733421  0.67723085    -0.12200
C593        C  0.06342435  0.33614858  0.66717970     0.13500
C594        C  0.06293308  0.29694041  0.64494377    -0.22600
C595        C  0.91689258  0.31106872  0.62923833    -0.05700
H596        H  0.93184345  0.38257345  0.67247618     0.15000
C597        C  0.11563941  0.34282843  0.67958678    -0.15900
H598        H  0.09952196  0.27251317  0.63751771     0.09300
H599        H  0.96769906  0.10942675  0.63150272     0.07200
H600        H  0.03739656  0.09127398  0.63602977     0.08400
H601        H  0.00643072  0.06977218  0.60290121     0.07400
H602        H  0.07393861  0.31018208  0.57741597     0.02300
H603        H  0.00498506  0.32991648  0.56910175     0.02800
H604        H  0.04905111  0.29523232  0.54042974     0.06300
H605        H  0.88322076  0.33918504  0.63916209     0.05300
H606        H  0.91121078  0.27084109  0.63453763    -0.00500
H607        H  0.91698710  0.31645288  0.60373372     0.01000
H608        H  0.13510854  0.30595227  0.69085263     0.04600
H609        H  0.11253172  0.37489445  0.69682076     0.06600
H610        H  0.14070206  0.35168068  0.66018364     0.07500
C611        C  0.94554676  0.34661390  0.87736239    -0.22200
C612        C  0.98764811  0.30817910  0.88708427     0.09800
C613        C  0.03701443  0.30444510  0.87246352     0.10200
C614        C  0.04359720  0.34081764  0.84950303    -0.17100
C615        C  0.00128802  0.37875075  0.83941894    -0.27500
C616        C  0.95150548  0.38144807  0.85341886     0.18500
C617        C  0.97741936  0.26711913  0.90880994     0.13000
C618        C  0.08187783  0.26018535  0.87959043    -0.11900
H619        H  0.08150362  0.33857600  0.83851095     0.12800
C620        C  0.90367139  0.41977120  0.84323314    -0.22700
H621        H  0.90729440  0.34823819  0.88781040     0.08400
C622        C  0.99534271  0.26341278  0.93967345     0.04800
C623        C  0.99374700  0.21757177  0.95668080    -0.19900
C624        C  0.97334328  0.17624427  0.94362207    -0.12200
C625        C  0.94872374  0.18385971  0.91425624     0.13500
C626        C  0.95177780  0.22884867  0.89718424    -0.22600
C627        C  0.01562508  0.30781152  0.95460131    -0.05700
H628        H  0.01084385  0.21300480  0.97954064     0.15000
C629        C  0.91918873  0.14492935  0.90044308    -0.15900
H630        H  0.93606177  0.23314690  0.87394250     0.09300
H631        H  0.88787445  0.44553765  0.86299359     0.07200
H632        H  0.87335481  0.39800514  0.83550746     0.08400
H633        H  0.91160171  0.44491437  0.82380006     0.07400
H634        H  0.07029202  0.22216013  0.87463699     0.02300
H635        H  0.09302099  0.26123557  0.90424831     0.02800
H636        H  0.11701591  0.26231902  0.86529993     0.06300
H637        H  0.02735226  0.29879402  0.97897059     0.05300
H638        H  0.98445262  0.34354275  0.95459574    -0.00500
H639        H  0.05003647  0.31615575  0.94177114     0.01000
H640        H  0.89719221  0.16078702  0.87950634     0.04600
H641        H  0.89042310  0.13553972  0.91758292     0.06600
H642        H  0.94637145  0.10868051  0.89314351     0.07500
C643        C  0.04253539  0.67452585  0.62562399    -0.22200
C644        C  0.00332214  0.71920456  0.63009349     0.09800
C645        C  0.97086193  0.72252539  0.65669845     0.10200
C646        C  0.97767136  0.68071437  0.67772398    -0.17100
C647        C  0.01729538  0.63621255  0.67353989    -0.27500
C648        C  0.05092026  0.63368306  0.64736853     0.18500
C649        C  0.99679663  0.76205574  0.60673540     0.12500
C650        C  0.93001749  0.77076439  0.66349604    -0.11900
H651        H  0.95233964  0.68298689  0.69791811     0.12800
C652        C  0.09665246  0.58932326  0.64194549    -0.22700
H653        H  0.06745089  0.67188412  0.60522990     0.08400
C654        C  0.03424032  0.79413551  0.60272916     0.04800
C655        C  0.02520906  0.83495575  0.58096515    -0.19900
C656        C  0.97910667  0.84552336  0.56329234    -0.12200
C657        C  0.94123432  0.81340472  0.56780439     0.13500
C658        C  0.95127975  0.77168726  0.58891958    -0.22600
C659        C  0.08304988  0.78644570  0.62204741    -0.05700
H660        H  0.05425676  0.85928401  0.57818197     0.15000
C661        C  0.88930752  0.82306546  0.55144698    -0.15900
H662        H  0.92280322  0.74677979  0.59207590     0.09300
H663        H  0.10233798  0.56047064  0.66102166     0.07200
H664        H  0.09080859  0.56866614  0.62010370     0.08400
H665        H  0.13310044  0.60520827  0.63983531     0.07400
H666        H  0.89978705  0.77655589  0.64523330     0.02300
H667        H  0.94875411  0.80556683  0.66452237     0.02800
H668        H  0.90996556  0.76774464  0.68602332     0.06300
H669        H  0.10701538  0.81638287  0.61692123     0.05300
H670        H  0.10761139  0.74742282  0.61727730    -0.00500
H671        H  0.07228407  0.78945696  0.64701103     0.01000
H672        H  0.89545567  0.81863509  0.52606082     0.04600
H673        H  0.86720453  0.86292651  0.55709711     0.06600
H674        H  0.86456698  0.79485731  0.55866153     0.07500
C675        C  0.02895598  0.75311464  0.93045276    -0.22200
C676        C  0.05301849  0.75453167  0.90135697     0.09800
C677        C  0.07024710  0.80030556  0.89207236     0.10200
C678        C  0.06104480  0.84433722  0.91157601    -0.17100
C679        C  0.03361679  0.84438777  0.93975678    -0.27500
C680        C  0.01868832  0.79765484  0.94973238     0.18500
C681        C  0.05102361  0.71181137  0.87888266     0.12500
C682        C  0.09494103  0.80406403  0.86066248    -0.11900
H683        H  0.07236598  0.88018098  0.90384376     0.12800
C684        C  0.98830384  0.79570025  0.97932977    -0.22700
H685        H  0.01515981  0.71802818  0.93717599     0.08400
C686        C  0.09397694  0.67070970  0.87305363     0.04800
C687        C  0.08971902  0.63321149  0.85014784    -0.19900
C688        C  0.04312669  0.63555411  0.83355100    -0.12200
C689        C  0.99970035  0.67584257  0.84021888     0.13500
C690        C  0.00442070  0.71364031  0.86257981    -0.22600
C691        C  0.14350393  0.66569940  0.89149179    -0.05700
H692        H  0.12250991  0.60159611  0.84537826     0.15000
C693        C  0.94758546  0.67974570  0.82454397    -0.15900
H694        H  0.97131913  0.74495875  0.86739645     0.09300
H695        H  0.97830743  0.75660481  0.98308507     0.07200
H696        H  0.95120268  0.82495501  0.97846487     0.08400
H697        H  0.01197113  0.80418990  0.99926847     0.07400
H698        H  0.06746047  0.79738457  0.84223270     0.02300
H699        H  0.13149663  0.77437843  0.85841157     0.02800
H700        H  0.10490314  0.84317128  0.85685731     0.06300
H701        H  0.17296449  0.63092845  0.88421530     0.05300
H702        H  0.13455956  0.66153160  0.91643637    -0.00500
H703        H  0.16108917  0.70085575  0.88841018     0.01000
H704        H  0.91693690  0.67781674  0.84227630     0.04600
H705        H  0.94687972  0.64800757  0.80751354     0.06600
H706        H  0.93758548  0.71768881  0.81221644     0.07500
loop_ 
_geom_bond_atom_site_label_1 
_geom_bond_atom_site_label_2 
_geom_bond_distance 
_geom_bond_site_symmetry_2 
_ccdc_geom_bond_type 
O1            C9   1.272   1_545  A
O1          Co21   1.968       .  S
O2           C10   1.294   1_655  A
O2          Co22   2.094   1_655  S
O3           C11   1.259       .  A
O3          Co23   1.979   1_545  S
O4           C12   1.269       .  A
O4          Co24   2.005   1_655  S
O5           C11   1.262       .  A
O5          Co22   1.996   1_655  S
O6           C12   1.264       .  A
O6          Co21   1.980       .  S
O7           C10   1.268       .  A
O7         Co377   1.911       .  S
O8            C9   1.279       .  A
O8         Co376   2.017       .  S
C9          C198   1.494       .  S
C10         C230   1.485       .  S
C11         C166   1.496       .  S
C12         C271   1.489       .  S
O13          C26   1.255   1_565  A
O13         Co21   1.964   1_465  S
O14          C27   1.307   1_455  A
O14         Co22   2.101   1_565  S
O15          C28   1.258       .  A
O15        Co376   2.020   1_455  S
O16          C29   1.301       .  A
O16        Co377   2.081   1_565  S
O17          C29   1.271       .  A
O17         Co22   1.888   1_565  S
O18          C28   1.253   1_655  A
O18         Co21   1.975   1_565  S
O19          C26   1.266       .  A
O19         Co24   2.011       .  S
O20          C27   1.273       .  A
O20         Co23   1.882       .  S
Co21         O25   2.033       .  S
Co22        O378   2.084   1_454  S
Co23        O361   2.017   1_554  S
Co23        O368   2.020   1_654  S
Co23        O378   1.889   1_564  S
Co24        O360   1.911       .  S
Co24        O369   2.081   1_545  S
Co24         O25   2.014   1_455  S
O25        Co375   2.084   1_655  S
O25        Co376   1.889   1_545  S
C26         C134   1.479       .  S
C27         C303   1.500       .  S
C28         C326   1.483       .  S
C29         C111   1.494       .  S
N30          C35   1.356       .  A
N30          C34   1.355       .  A
N30          H62   1.027   1_455  S
N31          C38   1.352       .  A
N31          C39   1.354       .  A
N32          C37   1.355       .  A
N32          C36   1.355       .  A
N32          H63   1.028       .  S
N33          C40   1.353       .  A
N33          C41   1.352       .  A
C34          C42   1.388       .  A
C34          C50   1.421       .  A
C35          C51   1.420       .  A
C35          C43   1.387       .  A
C36          C44   1.388       .  A
C36          C53   1.421       .  A
C37          C52   1.419       .  A
C37          C45   1.387       .  A
C38          C50   1.417       .  A
C38          C46   1.386   1_455  A
C39          C53   1.421       .  A
C39          C47   1.387   1_455  A
C40          C48   1.386       .  A
C40          C51   1.416       .  A
C41          C49   1.386       .  A
C41          C52   1.416       .  A
C42          C43   1.376       .  A
C42          H54   1.082       .  S
C43          H55   1.081       .  S
C44          C45   1.376       .  A
C44          H56   1.082       .  S
C45          H57   1.082       .  S
C46          C47   1.373       .  A
C46          H58   1.082       .  S
C47          H59   1.082       .  S
C48          C49   1.370       .  A
C48          H60   1.082   1_455  S
C49          H61   1.082       .  S
C50         C239   1.490       .  S
C51         C262   1.493       .  S
C52         C335   1.490       .  S
C53         C294   1.500       .  S
N64          C69   1.356       .  A
N64          C68   1.353       .  A
N64          H96   1.037       .  S
N65          C72   1.351       .  A
N65          C73   1.351       .  A
N66          C71   1.353   1_565  A
N66          C70   1.354   1_565  A
N66          H97   1.036       .  S
N67          C74   1.350       .  A
N67          C75   1.350       .  A
C68          C76   1.387       .  A
C68          C84   1.418       .  A
C69          C85   1.418       .  A
C69          C77   1.387   1_565  A
C70          C78   1.387       .  A
C70          C87   1.415       .  A
C71          C86   1.413   1_545  A
C71          C79   1.386       .  A
C72          C84   1.413       .  A
C72          C80   1.387       .  A
C73          C87   1.413   1_565  A
C73          C81   1.385       .  A
C74          C82   1.386       .  A
C74          C85   1.412       .  A
C75          C83   1.386       .  A
C75          C86   1.412       .  A
C76          C77   1.375   1_565  A
C76          H88   1.082   1_565  S
C77          H89   1.082       .  S
C78          C79   1.375       .  A
C78          H90   1.082       .  S
C79          H91   1.082       .  S
C80          C81   1.375       .  A
C80          H92   1.082       .  S
C81          H93   1.082       .  S
C82          C83   1.374       .  A
C82          H94   1.082       .  S
C83          H95   1.082       .  S
C84         C102   1.487       .  S
C85         C143   1.489       .  S
C86         C207   1.485       .  S
C87         C175   1.489       .  S
C98          C99   1.402       .  A
C98         C103   1.403       .  A
C98         H108   1.084       .  S
C99         C104   1.481       .  S
C99         C100   1.413   1_565  A
C100        C101   1.403       .  A
C100        C105   1.508       .  S
C101        C102   1.402   1_545  A
C101        H106   1.084       .  S
C102        C103   1.414       .  A
C103        C107   1.507       .  S
C104        C109   1.409       .  A
C104        C113   1.398       .  A
C105        H121   1.110       .  S
C105        H122   1.108       .  S
C105        H123   1.111       .  S
C107        H118   1.110       .  S
C107        H119   1.111       .  S
C107        H120   1.108       .  S
C109        C110   1.406       .  A
C109        C114   1.507       .  S
C110        C111   1.411       .  A
C110        H115   1.084       .  S
C111        C112   1.424       .  A
C112        C113   1.403       .  A
C112        C116   1.509       .  S
C113        H117   1.085       .  S
C114        H124   1.111       .  S
C114        H125   1.110       .  S
C114        H126   1.108   1_565  S
C116        H127   1.111       .  S
C116        H128   1.110       .  S
C116        H129   1.107       .  S
C130        C131   1.397       .  A
C130        C135   1.399       .  A
C130        H140   1.084       .  S
C131        C136   1.481       .  S
C131        C132   1.413       .  A
C132        C133   1.410       .  A
C132        C137   1.505       .  S
C133        C134   1.405       .  A
C133        H138   1.084       .  S
C134        C135   1.419       .  A
C135        C139   1.510       .  S
C136        C141   1.412   1_545  A
C136        C145   1.400       .  A
C137        H153   1.110       .  S
C137        H154   1.110   1_545  S
C137        H155   1.111       .  S
C139        H150   1.111       .  S
C139        H151   1.110       .  S
C139        H152   1.109   1_545  S
C141        C142   1.405       .  A
C141        C146   1.506       .  S
C142        C143   1.403       .  A
C142        H147   1.084       .  S
C143        C144   1.416   1_565  A
C144        C145   1.402       .  A
C144        C148   1.507       .  S
C145        H149   1.085       .  S
C146        H156   1.111       .  S
C146        H157   1.110       .  S
C146        H158   1.110       .  S
C148        H159   1.111       .  S
C148        H160   1.108       .  S
C148        H161   1.110       .  S
C162        C163   1.399       .  A
C162        C167   1.405       .  A
C162        H172   1.084       .  S
C163        C168   1.483       .  S
C163        C164   1.408       .  A
C164        C165   1.405       .  A
C164        C169   1.506       .  S
C165        C166   1.411       .  A
C165        H170   1.083       .  S
C166        C167   1.422       .  A
C167        C171   1.505       .  S
C168        C173   1.412   1_545  A
C168        C177   1.402       .  A
C169        H185   1.110       .  S
C169        H186   1.110   1_545  S
C169        H187   1.111   1_545  S
C171        H182   1.109       .  S
C171        H183   1.111       .  S
C171        H184   1.110       .  S
C173        C174   1.403       .  A
C173        C178   1.507       .  S
C174        C175   1.402   1_565  A
C174        H179   1.084       .  S
C175        C176   1.415       .  A
C176        C177   1.405       .  A
C176        C180   1.506       .  S
C177        H181   1.084       .  S
C178        H188   1.111       .  S
C178        H189   1.110       .  S
C178        H190   1.110       .  S
C180        H191   1.110       .  S
C180        H192   1.108       .  S
C180        H193   1.110       .  S
C194        C195   1.401       .  A
C194        C199   1.407       .  A
C194        H204   1.084       .  S
C195        C200   1.482       .  S
C195        C196   1.408   1_565  A
C196        C197   1.400       .  A
C196        C201   1.508       .  S
C197        C198   1.411   1_545  A
C197        H202   1.083       .  S
C198        C199   1.422       .  A
C199        C203   1.508       .  S
C200        C205   1.412       .  A
C200        C209   1.403   1_565  A
C201        H217   1.109       .  S
C201        H218   1.110       .  S
C201        H219   1.111       .  S
C203        H214   1.110       .  S
C203        H215   1.111       .  S
C203        H216   1.110       .  S
C205        C206   1.403       .  A
C205        C210   1.507       .  S
C206        C207   1.402       .  A
C206        H211   1.084       .  S
C207        C208   1.414   1_565  A
C208        C209   1.402       .  A
C208        C212   1.507       .  S
C209        H213   1.084       .  S
C210        H220   1.111       .  S
C210        H221   1.109       .  S
C210        H222   1.111       .  S
C212        H223   1.110       .  S
C212        H224   1.108       .  S
C212        H225   1.111       .  S
C226        C227   1.396       .  A
C226        C231   1.401       .  A
C226        H236   1.085       .  S
C227        C232   1.481       .  S
C227        C228   1.410       .  A
C228        C229   1.406       .  A
C228        C233   1.505       .  S
C229        C230   1.406       .  A
C229        H234   1.084       .  S
C230        C231   1.422       .  A
C231        C235   1.504       .  S
C232        C237   1.411   1_455  A
C232        C241   1.400       .  A
C233        H249   1.110       .  S
C233        H250   1.110       .  S
C233        H251   1.111       .  S
C235        H246   1.109   1_455  S
C235        H247   1.111       .  S
C235        H248   1.097       .  S
C237        C238   1.405       .  A
C237        C242   1.506       .  S
C238        C239   1.404   1_655  A
C238        H243   1.084       .  S
C239        C240   1.415       .  A
C240        C241   1.402       .  A
C240        C244   1.507       .  S
C241        H245   1.085       .  S
C242        H252   1.111       .  S
C242        H253   1.110       .  S
C242        H254   1.110       .  S
C244        H255   1.111       .  S
C244        H256   1.108       .  S
C244        H257   1.110       .  S
C258        C259   1.402       .  A
C258        C263   1.404       .  A
C258        H268   1.084       .  S
C259        C264   1.485       .  S
C259        C260   1.415   1_655  A
C260        C261   1.405       .  A
C260        C265   1.508       .  S
C261        C262   1.403       .  A
C261        H266   1.084       .  S
C262        C263   1.417   1_455  A
C263        C267   1.507       .  S
C264        C269   1.413       .  A
C264        C273   1.397       .  A
C265        H281   1.110       .  S
C265        H282   1.107       .  S
C265        H283   1.111       .  S
C267        H278   1.110       .  S
C267        H279   1.110       .  S
C267        H280   1.108       .  S
C269        C270   1.410       .  A
C269        C274   1.507   1_655  S
C270        C271   1.408       .  A
C270        H275   1.083   1_655  S
C271        C272   1.422       .  A
C272        C273   1.400       .  A
C272        C276   1.511       .  S
C273        H277   1.085       .  S
C274        H284   1.111       .  S
C274        H285   1.110   1_455  S
C274        H286   1.108       .  S
C276        H287   1.111       .  S
C276        H288   1.110       .  S
C276        H289   1.108       .  S
C290        C291   1.404       .  A
C290        C295   1.407       .  A
C290        H300   1.084       .  S
C291        C296   1.492   1_455  S
C291        C292   1.414   1_455  A
C292        C293   1.405       .  A
C292        C297   1.508       .  S
C293        C294   1.405   1_655  A
C293        H298   1.084       .  S
C294        C295   1.418       .  A
C295        C299   1.507       .  S
C296        C301   1.412   1_655  A
C296        C305   1.401       .  A
C297        H313   1.109       .  S
C297        H314   1.110       .  S
C297        H315   1.111       .  S
C299        H310   1.107       .  S
C299        H311   1.111       .  S
C299        H312   1.110       .  S
C301        C302   1.407       .  A
C301        C306   1.507       .  S
C302        C303   1.410   1_455  A
C302        H307   1.083       .  S
C303        C304   1.425       .  A
C304        C305   1.407       .  A
C304        C308   1.509       .  S
C305        H309   1.084       .  S
C306        H316   1.111       .  S
C306        H317   1.109       .  S
C306        H318   1.110       .  S
C308        H319   1.109       .  S
C308        H320   1.111       .  S
C308        H321   1.111       .  S
C322        C323   1.404       .  A
C322        C327   1.408       .  A
C322        H332   1.084       .  S
C323        C328   1.483       .  S
C323        C324   1.411       .  A
C324        C325   1.402       .  A
C324        C329   1.508       .  S
C325        C326   1.406       .  A
C325        H330   1.085       .  S
C326        C327   1.415       .  A
C327        C331   1.505   1_455  S
C328        C333   1.412       .  A
C328        C337   1.401       .  A
C329        H345   1.110       .  S
C329        H346   1.108       .  S
C329        H347   1.111       .  S
C331        H342   1.111       .  S
C331        H343   1.110       .  S
C331        H344   1.109   1_655  S
C333        C334   1.408       .  A
C333        C338   1.506       .  S
C334        C335   1.406       .  A
C334        H339   1.084       .  S
C335        C336   1.414   1_455  A
C336        C337   1.400   1_655  A
C336        C340   1.508       .  S
C337        H341   1.085   1_455  S
C338        H348   1.111       .  S
C338        H349   1.110       .  S
C338        H350   1.108       .  S
C340        H351   1.110       .  S
C340        H352   1.108       .  S
C340        H353   1.110       .  S
O354        C362   1.272   1_545  A
O354       Co374   1.968       .  S
O355        C363   1.294   1_655  A
O355       Co375   2.094   1_655  S
O356        C364   1.259       .  A
O356       Co376   1.979   1_545  S
O357        C365   1.269       .  A
O357       Co377   2.005   1_656  S
O358        C364   1.262       .  A
O358       Co375   1.996   1_655  S
O359        C365   1.264       .  A
O359       Co374   1.981       .  S
O360        C363   1.268       .  A
O361        C362   1.279       .  A
C362        C551   1.494       .  S
C363        C583   1.485       .  S
C364        C519   1.496       .  S
C365        C624   1.489       .  S
O366        C379   1.255   1_565  A
O366       Co374   1.964   1_465  S
O367        C380   1.307   1_455  A
O367       Co375   2.100   1_565  S
O368        C381   1.258       .  A
O369        C382   1.301       .  A
O370        C382   1.271       .  A
O370       Co375   1.888   1_565  S
O371        C381   1.254   1_655  A
O371       Co374   1.975   1_565  S
O372        C379   1.266       .  A
O372       Co377   2.011   1_556  S
O373        C380   1.273       .  A
O373       Co376   1.882       .  S
Co374       O378   2.034       .  S
Co377       O378   2.014   1_454  S
C379        C487   1.480       .  S
C380        C656   1.499       .  S
C381        C679   1.483       .  S
C382        C464   1.494       .  S
N383        C388   1.356       .  A
N383        C387   1.355       .  A
N383        H415   1.028   1_455  S
N384        C391   1.352       .  A
N384        C392   1.354       .  A
N385        C390   1.355       .  A
N385        C389   1.355       .  A
N385        H416   1.029       .  S
N386        C393   1.353       .  A
N386        C394   1.352       .  A
C387        C395   1.388       .  A
C387        C403   1.421       .  A
C388        C404   1.420       .  A
C388        C396   1.387       .  A
C389        C397   1.388       .  A
C389        C406   1.421       .  A
C390        C405   1.419       .  A
C390        C398   1.387       .  A
C391        C403   1.417       .  A
C391        C399   1.386   1_455  A
C392        C406   1.420       .  A
C392        C400   1.387   1_455  A
C393        C401   1.386       .  A
C393        C404   1.416       .  A
C394        C402   1.386       .  A
C394        C405   1.416       .  A
C395        C396   1.376       .  A
C395        H407   1.082       .  S
C396        H408   1.081       .  S
C397        C398   1.376       .  A
C397        H409   1.082       .  S
C398        H410   1.082       .  S
C399        C400   1.373       .  A
C399        H411   1.082       .  S
C400        H412   1.082       .  S
C401        C402   1.370       .  A
C401        H413   1.082       .  S
C402        H414   1.082       .  S
C403        C592   1.490       .  S
C404        C615   1.493       .  S
C405        C688   1.490       .  S
C406        C647   1.500       .  S
N417        C422   1.355       .  A
N417        C421   1.353       .  A
N417        H449   1.038       .  S
N418        C425   1.351       .  A
N418        C426   1.351       .  A
N419        C424   1.352   1_565  A
N419        C423   1.354   1_565  A
N419        H450   1.037       .  S
N420        C427   1.350       .  A
N420        C428   1.350       .  A
C421        C429   1.387       .  A
C421        C437   1.418       .  A
C422        C438   1.418       .  A
C422        C430   1.387   1_565  A
C423        C431   1.387       .  A
C423        C440   1.415       .  A
C424        C439   1.413   1_545  A
C424        C432   1.386       .  A
C425        C437   1.413       .  A
C425        C433   1.387       .  A
C426        C440   1.412   1_565  A
C426        C434   1.385       .  A
C427        C435   1.386       .  A
C427        C438   1.412       .  A
C428        C436   1.386       .  A
C428        C439   1.412       .  A
C429        C430   1.375   1_565  A
C429        H441   1.082   1_565  S
C430        H442   1.082       .  S
C431        C432   1.375       .  A
C431        H443   1.082       .  S
C432        H444   1.082       .  S
C433        C434   1.374       .  A
C433        H445   1.082       .  S
C434        H446   1.082       .  S
C435        C436   1.374       .  A
C435        H447   1.082       .  S
C436        H448   1.082       .  S
C437        C455   1.487       .  S
C438        C496   1.489       .  S
C439        C560   1.485       .  S
C440        C528   1.488       .  S
C451        C452   1.402       .  A
C451        C456   1.403       .  A
C451        H461   1.084       .  S
C452        C457   1.481       .  S
C452        C453   1.413   1_565  A
C453        C454   1.403       .  A
C453        C458   1.508       .  S
C454        C455   1.402   1_545  A
C454        H459   1.084       .  S
C455        C456   1.414       .  A
C456        C460   1.507       .  S
C457        C462   1.409       .  A
C457        C466   1.398       .  A
C458        H474   1.110       .  S
C458        H475   1.108       .  S
C458        H476   1.111       .  S
C460        H471   1.110       .  S
C460        H472   1.111       .  S
C460        H473   1.108       .  S
C462        C463   1.406       .  A
C462        C467   1.507       .  S
C463        C464   1.411       .  A
C463        H468   1.084       .  S
C464        C465   1.424       .  A
C465        C466   1.403       .  A
C465        C469   1.509       .  S
C466        H470   1.085       .  S
C467        H477   1.111       .  S
C467        H478   1.110       .  S
C467        H479   1.108   1_565  S
C469        H480   1.111       .  S
C469        H481   1.110       .  S
C469        H482   1.107       .  S
C483        C484   1.397       .  A
C483        C488   1.399       .  A
C483        H493   1.084       .  S
C484        C489   1.481       .  S
C484        C485   1.413       .  A
C485        C486   1.410       .  A
C485        C490   1.505       .  S
C486        C487   1.405       .  A
C486        H491   1.084       .  S
C487        C488   1.419       .  A
C488        C492   1.510       .  S
C489        C494   1.412   1_545  A
C489        C498   1.400       .  A
C490        H506   1.110       .  S
C490        H507   1.110   1_545  S
C490        H508   1.111       .  S
C492        H503   1.111       .  S
C492        H504   1.110       .  S
C492        H505   1.109   1_545  S
C494        C495   1.405       .  A
C494        C499   1.506       .  S
C495        C496   1.403       .  A
C495        H500   1.084       .  S
C496        C497   1.416   1_565  A
C497        C498   1.402       .  A
C497        C501   1.507       .  S
C498        H502   1.085       .  S
C499        H509   1.111       .  S
C499        H510   1.110       .  S
C499        H511   1.110       .  S
C501        H512   1.111       .  S
C501        H513   1.108       .  S
C501        H514   1.110       .  S
C515        C516   1.399       .  A
C515        C520   1.405       .  A
C515        H525   1.084       .  S
C516        C521   1.483       .  S
C516        C517   1.408       .  A
C517        C518   1.405       .  A
C517        C522   1.506       .  S
C518        C519   1.411       .  A
C518        H523   1.083       .  S
C519        C520   1.421       .  A
C520        C524   1.505       .  S
C521        C526   1.412   1_545  A
C521        C530   1.402       .  A
C522        H538   1.110       .  S
C522        H539   1.110   1_545  S
C522        H540   1.111   1_545  S
C524        H535   1.109       .  S
C524        H536   1.111       .  S
C524        H537   1.110       .  S
C526        C527   1.403       .  A
C526        C531   1.507       .  S
C527        C528   1.402   1_565  A
C527        H532   1.084       .  S
C528        C529   1.415       .  A
C529        C530   1.405       .  A
C529        C533   1.507       .  S
C530        H534   1.084       .  S
C531        H541   1.111       .  S
C531        H542   1.110       .  S
C531        H543   1.110       .  S
C533        H544   1.110       .  S
C533        H545   1.108       .  S
C533        H546   1.110       .  S
C547        C548   1.401       .  A
C547        C552   1.407       .  A
C547        H557   1.084       .  S
C548        C553   1.482       .  S
C548        C549   1.408   1_565  A
C549        C550   1.400       .  A
C549        C554   1.508       .  S
C550        C551   1.411   1_545  A
C550        H555   1.083       .  S
C551        C552   1.422       .  A
C552        C556   1.508       .  S
C553        C558   1.412       .  A
C553        C562   1.402   1_565  A
C554        H570   1.109       .  S
C554        H571   1.110       .  S
C554        H572   1.111       .  S
C556        H567   1.110       .  S
C556        H568   1.111       .  S
C556        H569   1.110       .  S
C558        C559   1.402       .  A
C558        C563   1.507       .  S
C559        C560   1.402       .  A
C559        H564   1.084       .  S
C560        C561   1.414   1_565  A
C561        C562   1.402       .  A
C561        C565   1.507       .  S
C562        H566   1.084       .  S
C563        H573   1.111       .  S
C563        H574   1.109       .  S
C563        H575   1.111       .  S
C565        H576   1.110       .  S
C565        H577   1.108       .  S
C565        H578   1.111       .  S
C579        C580   1.396       .  A
C579        C584   1.401       .  A
C579        H589   1.085       .  S
C580        C585   1.481       .  S
C580        C581   1.410       .  A
C581        C582   1.406       .  A
C581        C586   1.505       .  S
C582        C583   1.406       .  A
C582        H587   1.084       .  S
C583        C584   1.422       .  A
C584        C588   1.504       .  S
C585        C590   1.411   1_455  A
C585        C594   1.400       .  A
C586        H602   1.110       .  S
C586        H603   1.110       .  S
C586        H604   1.111       .  S
C588        H599   1.109   1_455  S
C588        H600   1.111       .  S
C588        H601   1.097       .  S
C590        C591   1.405       .  A
C590        C595   1.506       .  S
C591        C592   1.404   1_655  A
C591        H596   1.084       .  S
C592        C593   1.415       .  A
C593        C594   1.402       .  A
C593        C597   1.507       .  S
C594        H598   1.085       .  S
C595        H605   1.111       .  S
C595        H606   1.110       .  S
C595        H607   1.110       .  S
C597        H608   1.111       .  S
C597        H609   1.108       .  S
C597        H610   1.110       .  S
C611        C612   1.402       .  A
C611        C616   1.404       .  A
C611        H621   1.084       .  S
C612        C617   1.485       .  S
C612        C613   1.415   1_655  A
C613        C614   1.405       .  A
C613        C618   1.508       .  S
C614        C615   1.403       .  A
C614        H619   1.084       .  S
C615        C616   1.416   1_455  A
C616        C620   1.507       .  S
C617        C622   1.413       .  A
C617        C626   1.397       .  A
C618        H634   1.110       .  S
C618        H635   1.107       .  S
C618        H636   1.111       .  S
C620        H631   1.110       .  S
C620        H632   1.111       .  S
C620        H633   1.108       .  S
C622        C623   1.410       .  A
C622        C627   1.507   1_655  S
C623        C624   1.408       .  A
C623        H628   1.083   1_655  S
C624        C625   1.422       .  A
C625        C626   1.400       .  A
C625        C629   1.511       .  S
C626        H630   1.085       .  S
C627        H637   1.111       .  S
C627        H638   1.110   1_455  S
C627        H639   1.108       .  S
C629        H640   1.111       .  S
C629        H641   1.110       .  S
C629        H642   1.108       .  S
C643        C644   1.404       .  A
C643        C648   1.406       .  A
C643        H653   1.084       .  S
C644        C649   1.492   1_455  S
C644        C645   1.414   1_455  A
C645        C646   1.405       .  A
C645        C650   1.508       .  S
C646        C647   1.405   1_655  A
C646        H651   1.084       .  S
C647        C648   1.418       .  A
C648        C652   1.507       .  S
C649        C654   1.412   1_655  A
C649        C658   1.400       .  A
C650        H666   1.109       .  S
C650        H667   1.110       .  S
C650        H668   1.111       .  S
C652        H663   1.107       .  S
C652        H664   1.111       .  S
C652        H665   1.110       .  S
C654        C655   1.407       .  A
C654        C659   1.507       .  S
C655        C656   1.410   1_455  A
C655        H660   1.083       .  S
C656        C657   1.424       .  A
C657        C658   1.406       .  A
C657        C661   1.509       .  S
C658        H662   1.084       .  S
C659        H669   1.111       .  S
C659        H670   1.109       .  S
C659        H671   1.110       .  S
C661        H672   1.109       .  S
C661        H673   1.111       .  S
C661        H674   1.111       .  S
C675        C676   1.404       .  A
C675        C680   1.408       .  A
C675        H685   1.084       .  S
C676        C681   1.483       .  S
C676        C677   1.411       .  A
C677        C678   1.403       .  A
C677        C682   1.508       .  S
C678        C679   1.406       .  A
C678        H683   1.085       .  S
C679        C680   1.415       .  A
C680        C684   1.504   1_455  S
C681        C686   1.412       .  A
C681        C690   1.401       .  A
C682        H698   1.110       .  S
C682        H699   1.108       .  S
C682        H700   1.111       .  S
C684        H695   1.111       .  S
C684        H696   1.110       .  S
C684        H697   1.109   1_655  S
C686        C687   1.408       .  A
C686        C691   1.506       .  S
C687        C688   1.406       .  A
C687        H692   1.084       .  S
C688        C689   1.414   1_455  A
C689        C690   1.400   1_655  A
C689        C693   1.508       .  S
C690        H694   1.085   1_455  S
C691        H701   1.111       .  S
C691        H702   1.110       .  S
C691        H703   1.108       .  S
C693        H704   1.110       .  S
C693        H705   1.108       .  S
C693        H706   1.110       .  S
