geometry optimzed in LAMMPS
_audit_creation_date              2020-11-30 
_audit_creation_method            'lammps2cif' 
_symmetry_space_group_name_H-M    'P1' 
_symmetry_Int_Tables_number       1 
_symmetry_cell_setting            triclinic 
loop_ 
_symmetry_equiv_pos_as_xyz 
  x,y,z 
_cell_length_a                    36.21402039 
_cell_length_b                    35.09993970967344 
_cell_length_c                    31.82844581873909 
_cell_angle_alpha                 89.8153495310852 
_cell_angle_beta                  89.71434558937727 
_cell_angle_gamma                 78.81708591925886 
loop_ 
_atom_site_label 
_atom_site_type_symbol 
_atom_site_fract_x 
_atom_site_fract_y 
_atom_site_fract_z 
_atom_site_charge 
N1          N  0.99434688  0.72188056  0.97982423    -0.03200
C2          C  0.99009883  0.75866208  0.99494080    -0.00600
C3          C  0.45130360  0.77741927  0.99193264    -0.23500
C4          C  0.43299228  0.75015846  0.97555714    -0.23700
C5          C  0.46002199  0.71722370  0.96829233    -0.00700
H6          H  0.43800142  0.80541588  0.00437230     0.13100
H7          H  0.40290020  0.75330972  0.97144886     0.13100
N8          N  0.04760333  0.20719002  0.98381677    -0.03200
C9          C  0.05204777  0.17083713  0.00029424    -0.00600
C10         C  0.08804780  0.15049941  0.99228462    -0.23500
C11         C  0.10662365  0.17531475  0.97113131    -0.23700
C12         C  0.08135433  0.20999225  0.96639788    -0.00700
H13         H  0.10048902  0.12187632  0.00385447     0.13100
H14         H  0.13609381  0.16948826  0.96236429     0.13100
O15         O  0.32893759  0.50344756  0.82667312    -0.81500
C16         C  0.21341738  0.41918531  0.86213807     0.97800
O17         O  0.22977599  0.43728560  0.88832764    -0.70600
O18         O  0.30383007  0.41431248  0.88814325    -0.74200
Al19       Al  0.27173528  0.46380033  0.88346467     1.49000
C20         C  0.33676410  0.40581465  0.87335373     0.93100
O21         O  0.31148564  0.41304844  0.77271641    -0.80500
O22         O  0.23998425  0.51272487  0.76841157    -0.74000
Al23       Al  0.31775151  0.45855436  0.80120287     1.90100
O24         O  0.25313117  0.43383724  0.75321802    -0.73100
O25         O  0.20040995  0.50328361  0.83630441    -0.72900
O26         O  0.21751419  0.42405834  0.82328313    -0.78600
O27         O  0.23953439  0.51321285  0.88546686    -0.76800
O28         O  0.27356419  0.46350710  0.82749828    -1.12900
O29         O  0.31333236  0.49041389  0.89103257    -0.72100
C30         C  0.33097674  0.50840547  0.86570283     0.98600
C31         C  0.28407559  0.41002265  0.74955390     0.95000
Al32       Al  0.23134953  0.46813117  0.79781164     1.55600
O33         O  0.34612716  0.42483741  0.84253074    -0.76800
C34         C  0.20784868  0.52215828  0.86801141     0.99200
C35         C  0.26895630  0.51470948  0.74703215     0.94000
O36         O  0.29949808  0.49121011  0.75400984    -0.82100
N37         N  0.29315297  0.69936809  0.47223768    -0.03200
C38         C  0.29849688  0.66592777  0.49473071    -0.00600
C39         C  0.33450963  0.64499356  0.48840793    -0.23500
C40         C  0.35193532  0.66603861  0.46089345    -0.23700
C41         C  0.32596447  0.69924350  0.45131793    -0.00700
H42         H  0.34761507  0.61874121  0.50465909     0.13100
H43         H  0.38126555  0.65927228  0.45167629     0.13100
N44         N  0.24224443  0.18189777  0.53537416    -0.03200
C45         C  0.24004120  0.20423523  0.57038344    -0.00600
C46         C  0.20361238  0.21202121  0.58580592    -0.23500
C47         C  0.18260531  0.19375829  0.55978013    -0.23700
C48         C  0.20690037  0.17524401  0.52938239    -0.00700
H49         H  0.19332269  0.22976677  0.61273665     0.13100
H50         H  0.15290781  0.19342223  0.56305751     0.13100
O51         O  0.07153522  0.99760555  0.32910024    -0.81500
C52         C  0.45451304  0.91245157  0.35423510     0.97800
O53         O  0.47136647  0.92783182  0.38231784    -0.70600
O54         O  0.04480178  0.90420079  0.37902184    -0.74200
Al55       Al  0.01303926  0.95422835  0.37968063     1.49000
C56         C  0.07727039  0.89623601  0.36296408     0.93100
O57         O  0.05076468  0.91419346  0.26389816    -0.80500
O58         O  0.47877124  0.01481963  0.27093336    -0.74000
Al59       Al  0.05876909  0.95620213  0.29787152     1.90100
O60         O  0.49030408  0.93792422  0.24762542    -0.73100
O61         O  0.44055552  0.99967920  0.33781582    -0.72900
O62         O  0.45660705  0.92225837  0.31638035    -0.78600
O63         O  0.48060350  0.00390751  0.38802623    -0.76800
O64         O  0.01458451  0.95992197  0.32403797    -1.12900
O65         O  0.05443254  0.97944848  0.39103557    -0.72100
C66         C  0.07256454  0.99941036  0.36866478     0.98600
C67         C  0.02270452  0.91444748  0.24048205     0.95000
Al68       Al  0.47024415  0.96800170  0.29573965     1.55600
O69         O  0.08666852  0.91802077  0.33484992    -0.76800
C70         C  0.44890930  0.01535116  0.37129187     0.99200
C71         C  0.01118834  0.01826250  0.24928973     0.94000
O72         O  0.04120803  0.99350978  0.25456747    -0.82100
C73         C  0.40294036  0.09626300  0.44532262    -0.27400
C74         C  0.36456694  0.09838187  0.43682108     0.02300
C75         C  0.35440686  0.07503801  0.40450975     0.30300
C76         C  0.38220196  0.04941299  0.38234933    -0.19100
C77         C  0.42054416  0.04597383  0.39209872    -0.28500
C78         C  0.43076814  0.07044202  0.42336250     0.44400
C79         C  0.33528429  0.12350507  0.46293761     0.05600
O80         O  0.31727515  0.07597798  0.39529167    -0.57100
H81         H  0.37350672  0.03106036  0.35851524     0.18500
O82         O  0.46782358  0.06905404  0.43325908    -0.63800
H83         H  0.41139638  0.11449433  0.46942573     0.16900
C84         C  0.33530722  0.12009360  0.50715442     0.29200
C85         C  0.30561690  0.14131321  0.53095205    -0.24700
C86         C  0.27537645  0.16572914  0.51130942    -0.24000
C87         C  0.27614896  0.17056970  0.46742535     0.40600
C88         C  0.30591354  0.14964301  0.44358792    -0.26400
O89         O  0.36260562  0.09376573  0.52708024    -0.58300
H90         H  0.30502720  0.13697913  0.56463739     0.16300
O91         O  0.24729744  0.19485399  0.44748138    -0.59700
H92         H  0.30566262  0.15322726  0.40976523     0.14700
H93         H  0.47666910  0.08704568  0.41318209     0.46600
H94         H  0.37922476  0.10948036  0.54055640     0.42000
H95         H  0.25450401  0.22070117  0.44757912     0.45400
H96         H  0.30915197  0.05716216  0.41491170     0.36900
C97         C  0.19318321  0.08583153  0.46993585    -0.27400
C98         C  0.16004788  0.10068481  0.44772514     0.02300
C99         C  0.14503425  0.14076298  0.44925660     0.30300
C100        C  0.16238001  0.16506389  0.47388134    -0.19100
C101        C  0.19470764  0.15009387  0.49723834    -0.28500
C102        C  0.21041848  0.11019413  0.49480074     0.44400
C103        C  0.13931012  0.07378447  0.42653768     0.05600
O104        O  0.11156486  0.15579782  0.42992352    -0.57100
H105        H  0.14948359  0.19554057  0.47632821     0.18500
O106        O  0.24097430  0.09425097  0.51865986    -0.63800
H107        H  0.20482145  0.05497350  0.46932072     0.16900
C108        C  0.12967928  0.07809936  0.38376954     0.29200
C109        C  0.10798045  0.05375598  0.36536965    -0.24700
C110        C  0.09562810  0.02467241  0.38902066    -0.24000
C111        C  0.10597519  0.01995754  0.43175280     0.40600
C112        C  0.12775731  0.04427387  0.45001240    -0.26400
O113        O  0.14132662  0.10603774  0.35967059    -0.58300
H114        H  0.10061346  0.05787311  0.33249454     0.16300
O115        O  0.09583931  0.99110077  0.45578324    -0.59700
H116        H  0.13508476  0.04052495  0.48294295     0.14700
H117        H  0.23047773  0.08861423  0.54632346     0.46600
H118        H  0.16671866  0.09382343  0.34931050     0.42000
H119        H  0.07265512  0.00367282  0.47086481     0.45400
H120        H  0.11813922  0.17195440  0.40646408     0.36900
C121        C  0.37651873  0.75991701  0.38092403    -0.27400
C122        C  0.36903342  0.79563432  0.40202338     0.02300
C123        C  0.34314588  0.80089863  0.43559181     0.30300
C124        C  0.32699479  0.76987740  0.44929176    -0.19100
C125        C  0.33642359  0.73331900  0.43012472    -0.28500
C126        C  0.36068544  0.72873258  0.39496307     0.44400
C127        C  0.39000909  0.82632295  0.39016447     0.05600
O128        O  0.33360871  0.83626997  0.45515918    -0.57100
H129        H  0.30897939  0.77389075  0.47669739     0.18500
O130        O  0.36925785  0.69379155  0.37440564    -0.63800
H131        H  0.39601701  0.75566164  0.35464782     0.16900
C132        C  0.41317461  0.84032944  0.41942743     0.29200
C133        C  0.43361539  0.86855469  0.40741852    -0.24700
C134        C  0.43198597  0.88290413  0.36604136    -0.24000
C135        C  0.40892464  0.86849871  0.33665422     0.40600
C136        C  0.38838403  0.84034984  0.34882988    -0.26400
O137        O  0.41673115  0.82595963  0.45964220    -0.58300
H138        H  0.45128896  0.87874111  0.43053028     0.16300
O139        O  0.40638342  0.88134831  0.29583637    -0.59700
H140        H  0.37097900  0.82948732  0.32591181     0.14700
H141        H  0.39607246  0.68323042  0.38084122     0.46600
H142        H  0.43691209  0.80244746  0.45811007     0.42000
H143        H  0.38528418  0.90407114  0.29569959     0.45400
H144        H  0.34419430  0.83229777  0.48388009     0.36900
C145        C  0.20526055  0.77667295  0.47084465    -0.27400
C146        C  0.19196247  0.77214854  0.43000888     0.02300
C147        C  0.21052927  0.74085000  0.40535698     0.30300
C148        C  0.24307448  0.71657282  0.42031966    -0.19100
C149        C  0.25732035  0.72223258  0.46020667    -0.28500
C150        C  0.23770029  0.75181843  0.48606267     0.44400
C151        C  0.16098550  0.80187371  0.41199087     0.05600
O152        O  0.19755207  0.73424955  0.36615387    -0.57100
H153        H  0.25784461  0.69352550  0.40042533     0.18500
O154        O  0.25060284  0.75710771  0.52565796    -0.63800
H155        H  0.19144838  0.80050728  0.49034234     0.16900
C156        C  0.12663543  0.81434227  0.43344799     0.29200
C157        C  0.09916720  0.84423874  0.41665894    -0.24700
C158        C  0.10523652  0.86225044  0.37831770    -0.24000
C159        C  0.13918805  0.84875953  0.35627505     0.40600
C160        C  0.16655376  0.81905463  0.37315908    -0.26400
O161        O  0.11970579  0.79775812  0.47101304    -0.58300
H162        H  0.07336267  0.85388625  0.43421854     0.16300
O163        O  0.14592922  0.86409611  0.31793391    -0.59700
H164        H  0.19277074  0.81005618  0.35614945     0.14700
H165        H  0.25758866  0.78306712  0.52537716     0.46600
H166        H  0.11080275  0.77369838  0.46341166     0.42000
H167        H  0.16195347  0.88334324  0.32394512     0.45400
H168        H  0.17874253  0.71756261  0.37095600     0.36900
C169        C  0.26424242  0.34612361  0.65921276    -0.27400
C170        C  0.29560599  0.31566135  0.66077764     0.02300
C171        C  0.32417656  0.31723821  0.69007609     0.30300
C172        C  0.32062850  0.34864417  0.71799722    -0.19100
C173        C  0.28830920  0.37841890  0.71781489    -0.28500
C174        C  0.26024012  0.37708217  0.68748695     0.44400
C175        C  0.29495422  0.28053017  0.63533794     0.05600
O176        O  0.35563484  0.28830596  0.69144974    -0.57100
H177        H  0.34284578  0.34908427  0.74055164     0.18500
O178        O  0.22863767  0.40574390  0.68510983    -0.63800
H179        H  0.24185446  0.34505385  0.63702997     0.16900
C180        C  0.28853030  0.24654585  0.65526438     0.29200
C181        C  0.27622554  0.21785497  0.63177122    -0.24700
C182        C  0.26950810  0.22282214  0.58854095    -0.24000
C183        C  0.28006531  0.25456174  0.56783645     0.40600
C184        C  0.29244225  0.28340465  0.59134982    -0.26400
O185        O  0.28988590  0.24315839  0.69821612    -0.58300
H186        H  0.26765424  0.19386001  0.64816878     0.16300
O187        O  0.27331862  0.26047094  0.52574796    -0.59700
H188        H  0.29702430  0.30955645  0.57568471     0.14700
H189        H  0.20933069  0.39612571  0.70216609     0.46600
H190        H  0.26425802  0.25506268  0.70820022     0.42000
H191        H  0.29664805  0.24699167  0.51158738     0.45400
H192        H  0.35266332  0.27300506  0.71706428     0.36900
C193        C  0.29668559  0.57931986  0.66069941    -0.27400
C194        C  0.26154676  0.59580495  0.64364089     0.02300
C195        C  0.22878812  0.58666779  0.66152869     0.30300
C196        C  0.23148362  0.56106193  0.69583048    -0.19100
C197        C  0.26676531  0.54375870  0.71250129    -0.28500
C198        C  0.29953621  0.55347934  0.69465403     0.44400
C199        C  0.26020725  0.62071223  0.60576721     0.05600
O200        O  0.19408961  0.60215055  0.64532570    -0.57100
H201        H  0.20589047  0.55402431  0.70874891     0.18500
O202        O  0.33461041  0.53749178  0.70957222    -0.63800
H203        H  0.32217285  0.58589437  0.64694292     0.16900
C204        C  0.27409618  0.65546179  0.60707152     0.29200
C205        C  0.28163457  0.67358982  0.56962834    -0.24700
C206        C  0.27558911  0.65736260  0.53063309    -0.24000
C207        C  0.25831453  0.62480541  0.52936074     0.40600
C208        C  0.25053094  0.60674300  0.56685672    -0.26400
O209        O  0.28348208  0.66998231  0.64464292    -0.58300
H210        H  0.29578461  0.69807402  0.57107201     0.16300
O211        O  0.25267849  0.60806416  0.49166931    -0.59700
H212        H  0.23985929  0.57999764  0.56540766     0.14700
H213        H  0.33884801  0.55428622  0.73336132     0.46600
H214        H  0.25964173  0.68558898  0.65566602     0.42000
H215        H  0.22818725  0.62277317  0.48143483     0.45400
H216        H  0.18663860  0.62789810  0.65892039     0.36900
C217        C  0.09400866  0.29847360  0.90199554    -0.27400
C218        C  0.12525038  0.30851875  0.92225650     0.02300
C219        C  0.13974693  0.28767081  0.95832959     0.30300
C220        C  0.12380619  0.25695911  0.97304084    -0.19100
C221        C  0.09335666  0.24609282  0.95231125    -0.28500
C222        C  0.07810339  0.26736656  0.91674399     0.44400
C223        C  0.14430877  0.33911094  0.90487603     0.05600
O224        O  0.17048213  0.29617617  0.97861484    -0.57100
H225        H  0.13601792  0.24074898  0.00029593     0.18500
O226        O  0.04854939  0.25735123  0.89551963    -0.63800
H227        H  0.08242144  0.31430435  0.87427716     0.16900
C228        C  0.16095743  0.33530915  0.86464722     0.29200
C229        C  0.18294841  0.36179928  0.85094693    -0.24700
C230        C  0.18891366  0.39236801  0.87693915    -0.24000
C231        C  0.17111994  0.39688769  0.91666141     0.40600
C232        C  0.14903812  0.37046669  0.93023635    -0.26400
O233        O  0.15789589  0.30437733  0.83957473    -0.58300
H234        H  0.19625014  0.35772568  0.82028928     0.16300
O235        O  0.17431131  0.42756065  0.94207348    -0.59700
H236        H  0.13606509  0.37405316  0.96109019     0.15700
H237        H  0.06020931  0.23735455  0.87499263     0.46600
H238        H  0.13743914  0.31454002  0.81954392     0.42000
H239        H  0.19463555  0.41711545  0.96215981     0.45400
H240        H  0.19262674  0.28097897  0.96373785     0.36900
C241        C  0.45177901  0.25028497  0.94894355    -0.27400
C242        C  0.45231573  0.29000402  0.95200736     0.02300
C243        C  0.48308169  0.30171930  0.97151618     0.30300
C244        C  0.51358429  0.27383147  0.98574612    -0.19100
C245        C  0.51455289  0.23406760  0.97953869    -0.28500
C246        C  0.48271094  0.22239250  0.96213569     0.44400
C247        C  0.42231308  0.31882919  0.93161326     0.05600
O248        O  0.48363634  0.34042644  0.97639244    -0.57100
H249        H  0.03289411  0.28277469  0.00515613     0.18500
O250        O  0.48240846  0.18387266  0.95556072    -0.63800
H251        H  0.42821849  0.24088064  0.93410679     0.16900
C252        C  0.43075703  0.34014687  0.89655196     0.29200
C253        C  0.40257074  0.36768741  0.87766300    -0.24700
C254        C  0.36534351  0.37456918  0.89297012    -0.24000
C255        C  0.35679519  0.35250952  0.92776246     0.40600
C256        C  0.38512435  0.32467585  0.94646166    -0.26400
O257        O  0.46662332  0.33425834  0.88046126    -0.58300
H258        H  0.41011988  0.38395610  0.85105118     0.16300
O259        O  0.32095055  0.35772796  0.94379960    -0.59700
H260        H  0.37817869  0.30806944  0.97311075     0.14700
H261        H  0.49444223  0.17782073  0.92769222     0.46600
H262        H  0.46832408  0.31197913  0.86098973     0.42000
H263        H  0.32021761  0.37694263  0.96672352     0.45400
H264        H  0.50200022  0.34628410  0.95527606     0.36900
C265        C  0.01032347  0.15929036  0.10686034    -0.27400
C266        C  0.00782931  0.11995099  0.10546415     0.02300
C267        C  0.51072268  0.10033851  0.06835022     0.30300
C268        C  0.52203528  0.11875714  0.03277586    -0.19100
C269        C  0.02793535  0.15751760  0.03280133    -0.28500
C270        C  0.02011088  0.17823391  0.07073305     0.44400
C271        C  0.00835972  0.09748403  0.14497851     0.05600
O272        O  0.50846002  0.06181693  0.06623822    -0.57100
H273        H  0.52952886  0.10193656  0.00443908     0.18500
O274        O  0.02677797  0.21522343  0.07426103    -0.63800
H275        H  0.00759530  0.17444745  0.13665347     0.16900
C276        C  0.04264947  0.07581162  0.15963708     0.29200
C277        C  0.04326713  0.05172538  0.19481160    -0.24700
C278        C  0.00985037  0.04849539  0.21603725    -0.24000
C279        C  0.97561780  0.07195027  0.20251136     0.40600
C280        C  0.97508662  0.09604736  0.16705315    -0.26400
O281        O  0.07578120  0.07790542  0.13946383    -0.58300
H282        H  0.07003282  0.03468074  0.20471457     0.16300
O283        O  0.43718240  0.05751621  0.21171695    -0.59700
H284        H  0.44385886  0.10251020  0.14757344     0.14700
H285        H  0.00158779  0.23236755  0.07295963     0.46600
H286        H  0.08149798  0.05437293  0.12162345     0.42000
H287        H  0.42779851  0.07753575  0.23316458     0.45400
H288        H  0.53427974  0.04733546  0.07206732     0.36900
C289        C  0.15794970  0.60608502  0.93626171    -0.27400
C290        C  0.12035858  0.60859199  0.92427678     0.02300
C291        C  0.11191373  0.58415717  0.89221071     0.30300
C292        C  0.14078760  0.55713523  0.87327253    -0.19100
C293        C  0.17843418  0.55353347  0.88613243    -0.28500
C294        C  0.18682025  0.57869004  0.91783113     0.44400
C295        C  0.09025098  0.63781414  0.94416853     0.05600
O296        O  0.07565261  0.58755861  0.87813498    -0.57100
H297        H  0.13346430  0.53849173  0.84888752     0.18500
O298        O  0.22316575  0.57730827  0.93063479    -0.63800
H299        H  0.16489044  0.62519390  0.96040531     0.16900
C300        C  0.06099662  0.62655137  0.96752549     0.29200
C301        C  0.03109560  0.65479921  0.98272641    -0.24700
C302        C  0.02914496  0.69432610  0.97361231    -0.24000
C303        C  0.05953087  0.70559057  0.95222924     0.40600
C304        C  0.08993043  0.67746845  0.93814039    -0.26400
O305        O  0.06147674  0.58801599  0.97553394    -0.58300
H306        H  0.00836842  0.64567521  0.99980982     0.16300
O307        O  0.05870519  0.74384285  0.94260842    -0.59700
H308        H  0.11239825  0.68655285  0.92049094     0.14700
H309        H  0.22611994  0.56085573  0.95625497     0.46600
H310        H  0.04038135  0.58145957  0.95907103     0.42000
H311        H  0.04507477  0.74833230  0.91554749     0.45400
H312        H  0.06742469  0.56354947  0.88754008     0.36900
C313        C  0.39602590  0.55388107  0.93475880    -0.27400
C314        C  0.40052757  0.58617083  0.91048383     0.02300
C315        C  0.38281523  0.59210147  0.87106767     0.30300
C316        C  0.36059888  0.56637087  0.85675910    -0.19100
C317        C  0.35503436  0.53478518  0.88158267    -0.28500
C318        C  0.37357727  0.52824353  0.92057678     0.44400
C319        C  0.42019769  0.61581870  0.92816553     0.05600
O320        O  0.38593515  0.62377343  0.84691988    -0.57100
H321        H  0.34682933  0.57176776  0.82657487     0.18500
O322        O  0.37016541  0.49682280  0.94499109    -0.63800
H323        H  0.40959159  0.54886424  0.96508553     0.16900
C324        C  0.40673415  0.63534915  0.96535780     0.29200
C325        C  0.42183302  0.66678700  0.97908264    -0.24700
C326        C  0.45020258  0.67973807  0.95607653    -0.24000
C327        C  0.46473908  0.65944994  0.91962534     0.40600
C328        C  0.44986806  0.62750774  0.90604714    -0.26400
O329        O  0.37735854  0.62528743  0.98733705    -0.58300
H330        H  0.41018961  0.68221739  0.00706034     0.16300
O331        O  0.99129399  0.67312116  0.89254165    -0.59700
H332        H  0.46048720  0.61275936  0.87732864     0.14700
H333        H  0.38936238  0.47503259  0.93397824     0.46600
H334        H  0.35428523  0.63974229  0.97362119     0.42000
H335        H  0.97820185  0.69342499  0.87313487     0.45400
H336        H  0.36583275  0.64504858  0.85724096     0.36900
C337        C  0.02956629  0.83132969  0.05715623    -0.27400
C338        C  0.03446993  0.81241310  0.09616228     0.02300
C339        C  0.53460699  0.77611977  0.09578488     0.30300
C340        C  0.52529057  0.75613727  0.06051475    -0.19100
C341        C  0.01524815  0.77326394  0.02484258    -0.28500
C342        C  0.01988816  0.81208058  0.02164699     0.44400
C343        C  0.03205845  0.83639865  0.13463939     0.05600
O344        O  0.54029491  0.75715671  0.13361873    -0.57100
H345        H  0.52239908  0.72613493  0.06403210     0.18500
O346        O  0.01225611  0.83215485  0.98460291    -0.63800
H347        H  0.03014126  0.86203437  0.05501887     0.16900
C348        C  0.06266442  0.83525662  0.16188299     0.29200
C349        C  0.05917619  0.86023471  0.19671131    -0.24700
C350        C  0.02525156  0.88659903  0.20489332    -0.24000
C351        C  0.49177158  0.88254391  0.18154999     0.40600
C352        C  0.49567057  0.85905783  0.14579040    -0.26400
O353        O  0.09614071  0.81030401  0.15443275    -0.58300
H354        H  0.08328896  0.85931622  0.21695904     0.16300
O355        O  0.45627156  0.89990547  0.19433713    -0.59700
H356        H  0.47071568  0.85574434  0.12861672     0.14700
H357        H  0.98815592  0.85061397  0.98934966     0.46600
H358        H  0.11104218  0.82525091  0.13688361     0.42000
H359        H  0.44979078  0.92389894  0.17719658     0.45400
H360        H  0.56794950  0.74839378  0.13568569     0.36900
N361        N  0.49450078  0.72342639  0.97957152    -0.03200
C362        C  0.48899931  0.76031561  0.99443230    -0.00600
C363        C  0.95350873  0.77832114  0.98898466    -0.23500
C364        C  0.93447013  0.75291904  0.97015052    -0.23700
C365        C  0.95998348  0.71854684  0.96490938    -0.00700
H366        H  0.94111162  0.80698368  0.00039791     0.13100
H367        H  0.90471152  0.75824838  0.96304584     0.13100
N368        N  0.54913597  0.20620041  0.98579380    -0.03200
C369        C  0.55294264  0.17021521  0.00330674    -0.00600
C370        C  0.58900177  0.14939991  0.99668944    -0.23500
C371        C  0.60833295  0.17340557  0.97540561    -0.23700
C372        C  0.58349205  0.20810866  0.96916030    -0.00700
H373        H  0.60088524  0.12093517  0.00909783     0.13100
H374        H  0.63797385  0.16703662  0.96741362     0.13100
O375        O  0.82867539  0.50291848  0.82552530    -0.81500
C376        C  0.71234692  0.42099128  0.86406448     0.97800
O377        O  0.72920718  0.43879284  0.89002516    -0.70600
O378        O  0.80270770  0.41474041  0.88800768    -0.74200
Al379      Al  0.77151902  0.46464736  0.88404282     1.49000
C380        C  0.83541230  0.40579867  0.87283187     0.93100
O381        O  0.80831398  0.41316998  0.77314313    -0.80500
O382        O  0.73904564  0.51439817  0.76876750    -0.74000
Al383      Al  0.81618265  0.45843822  0.80077476     1.90100
O384        O  0.74987711  0.43523654  0.75461266    -0.73100
O385        O  0.70032720  0.50672439  0.83780179    -0.72900
O386        O  0.71492400  0.42705497  0.82523799    -0.78600
O387        O  0.74027283  0.51440196  0.88700942    -0.76800
O388        O  0.77234436  0.46459795  0.82799075    -1.12900
O389        O  0.81383566  0.49047516  0.89038885    -0.72100
C390        C  0.83129768  0.50810421  0.86446040     0.98600
C391        C  0.78028042  0.41059157  0.75077436     0.95000
Al392      Al  0.72961489  0.47041603  0.79911275     1.55600
O393        O  0.84476196  0.42456671  0.84182302    -0.76800
C394        C  0.70878592  0.52492446  0.86956201     0.99200
C395        C  0.76786274  0.51526599  0.74663929     0.94000
O396        O  0.79795867  0.49101515  0.75342643    -0.82100
N397        N  0.79368358  0.69987574  0.47025764    -0.03200
C398        C  0.79990043  0.66699924  0.49382691    -0.00600
C399        C  0.83630949  0.64694117  0.48789510    -0.23500
C400        C  0.85304351  0.66792702  0.45958978    -0.23700
C401        C  0.82631934  0.70027621  0.44910650    -0.00700
H402        H  0.85003000  0.62124966  0.50468948     0.13100
H403        H  0.88237414  0.66173306  0.45032196     0.13100
N404        N  0.74286679  0.17975327  0.53481844    -0.03200
C405        C  0.74021026  0.20100331  0.57061634    -0.00600
C406        C  0.70430001  0.20581744  0.58727346    -0.23500
C407        C  0.68405578  0.18679804  0.56109648    -0.23700
C408        C  0.70833634  0.17090073  0.52941664    -0.00700
H409        H  0.69369287  0.22249603  0.61481952     0.13100
H410        H  0.65482845  0.18456933  0.56483777     0.13100
O411        O  0.56992306  0.99835864  0.32783168    -0.81500
C412        C  0.95435414  0.91329245  0.35141062     0.97800
O413        O  0.97138746  0.92768639  0.38011658    -0.70600
O414        O  0.54487625  0.90518209  0.37963656    -0.74200
Al415      Al  0.51268608  0.95485271  0.38023123     1.49000
C416        C  0.57703136  0.89722937  0.36279442     0.93100
O417        O  0.54910225  0.91467742  0.26354442    -0.80500
O418        O  0.98227682  0.01591829  0.27057945    -0.74000
Al419      Al  0.55693455  0.95675795  0.29728755     1.90100
O420        O  0.99263048  0.93902540  0.24651942    -0.73100
O421        O  0.94222843  0.00112912  0.33600714    -0.72900
O422        O  0.95676225  0.92390117  0.31386499    -0.78600
O423        O  0.98128273  0.00343028  0.38773850    -0.76800
O424        O  0.51327392  0.95991563  0.32444129    -1.12900
O425        O  0.55394531  0.98047424  0.39024554    -0.72100
C426        C  0.57187836  0.00012119  0.36728833     0.98600
C427        C  0.52086121  0.91440207  0.24063438     0.95000
Al428      Al  0.97211517  0.96925272  0.29435435     1.55600
O429        O  0.58575300  0.91867957  0.33389242    -0.76800
C430        C  0.95016214  0.01590583  0.37018087     0.99200
C431        C  0.50736318  0.01796129  0.24944558     0.94000
O432        O  0.53799531  0.99405219  0.25448633    -0.82100
C433        C  0.90424805  0.09673038  0.44426520    -0.27400
C434        C  0.86587818  0.09911764  0.43546213     0.02300
C435        C  0.85578252  0.07605665  0.40282718     0.30300
C436        C  0.88360180  0.05047386  0.38066870    -0.19100
C437        C  0.92188444  0.04668029  0.39082330    -0.28500
C438        C  0.93208410  0.07083707  0.42239930     0.44400
C439        C  0.83652546  0.12398111  0.46176967     0.05600
O440        O  0.81868181  0.07712760  0.39334575    -0.57100
H441        H  0.87495235  0.03232775  0.35659380     0.18500
O442        O  0.96911286  0.06903141  0.43271563    -0.63800
H443        H  0.91269322  0.11472978  0.46860313     0.16900
C444        C  0.83677415  0.12041982  0.50597648     0.29200
C445        C  0.80691981  0.14106690  0.52994344    -0.24700
C446        C  0.77624950  0.16501987  0.51053934    -0.24000
C447        C  0.77675497  0.17008924  0.46667808     0.40600
C448        C  0.80674458  0.14980181  0.44264952    -0.26400
O449        O  0.86440126  0.09433484  0.52572959    -0.58300
H450        H  0.80649374  0.13647647  0.56359683     0.16300
O451        O  0.74733971  0.19371133  0.44690890    -0.59700
H452        H  0.80627595  0.15350709  0.40884198     0.14700
H453        H  0.97834098  0.08689626  0.41279462     0.46600
H454        H  0.88055755  0.11029420  0.53963711     0.42000
H455        H  0.75364876  0.21995626  0.44733362     0.45400
H456        H  0.81026237  0.05867554  0.41319483     0.36900
C457        C  0.69626560  0.08340849  0.46594770    -0.27400
C458        C  0.66318748  0.09870500  0.44384295     0.02300
C459        C  0.64806257  0.13870890  0.44629723     0.30300
C460        C  0.66488626  0.16237917  0.47228260    -0.19100
C461        C  0.69688452  0.14682135  0.49586047    -0.28500
C462        C  0.71307866  0.10717787  0.49201287     0.44400
C463        C  0.64198136  0.07216245  0.42292535     0.05600
O464        O  0.61483635  0.15414770  0.42670084    -0.57100
H465        H  0.65177981  0.19271414  0.47568850     0.18500
O466        O  0.74362692  0.09085758  0.51570156    -0.63800
H467        H  0.70799029  0.05259254  0.46454643     0.16900
C468        C  0.63193235  0.07653687  0.38029054     0.29200
C469        C  0.60908941  0.05298194  0.36255880    -0.24700
C470        C  0.59602333  0.02469522  0.38681701    -0.24000
C471        C  0.60698172  0.01980564  0.42933984     0.40600
C472        C  0.62984906  0.04332653  0.44689903    -0.26400
O473        O  0.64413874  0.10385236  0.35575767    -0.58300
H474        H  0.60138108  0.05709841  0.32977612     0.16300
O475        O  0.59632448  0.99155964  0.45387290    -0.59700
H476        H  0.63748491  0.03958632  0.47974846     0.14700
H477        H  0.73302266  0.08325342  0.54254317     0.46600
H478        H  0.66956492  0.09120775  0.34587539     0.42000
H479        H  0.57359502  0.00483521  0.46927515     0.45400
H480        H  0.62182902  0.17012403  0.40330417     0.36900
C481        C  0.87541396  0.76045813  0.37621764    -0.27400
C482        C  0.86765390  0.79656314  0.39651827     0.02300
C483        C  0.84168011  0.80222908  0.42999619     0.30300
C484        C  0.82597517  0.77122132  0.44467457    -0.19100
C485        C  0.83585343  0.73423846  0.42654770    -0.28500
C486        C  0.85996890  0.72927680  0.39121214     0.44400
C487        C  0.88911252  0.82697842  0.38490238     0.05600
O488        O  0.83191364  0.83792864  0.44881938    -0.57100
H489        H  0.80813805  0.77562250  0.47218278     0.18500
O490        O  0.86895001  0.69391357  0.37156337    -0.63800
H491        H  0.89499987  0.75586162  0.35003329     0.16900
C492        C  0.91263912  0.84007769  0.41441689     0.29200
C493        C  0.93324088  0.86835780  0.40314850    -0.24700
C494        C  0.93144941  0.88376200  0.36223463    -0.24000
C495        C  0.90805151  0.87027703  0.33249370     0.40600
C496        C  0.88735296  0.84194925  0.34392734    -0.26400
O497        O  0.91629625  0.82480637  0.45424219    -0.58300
H498        H  0.95117053  0.87777292  0.42651838     0.16300
O499        O  0.90528042  0.88426622  0.29211302    -0.59700
H500        H  0.86965755  0.83180245  0.32080269     0.14700
H501        H  0.89581589  0.68381215  0.37815809     0.46600
H502        H  0.93725703  0.80202414  0.45239193     0.42000
H503        H  0.88414669  0.90695106  0.29272049     0.45400
H504        H  0.84302648  0.83470195  0.47733509     0.36900
C505        C  0.70670969  0.77815163  0.46968712    -0.27400
C506        C  0.69255782  0.77345696  0.42927628     0.02300
C507        C  0.71008995  0.74148234  0.40486861     0.30300
C508        C  0.74255334  0.71680653  0.41951390    -0.19100
C509        C  0.75761276  0.72263938  0.45893468    -0.28500
C510        C  0.73891462  0.75279025  0.48467757     0.44400
C511        C  0.66150550  0.80339485  0.41160241     0.05600
O512        O  0.69617164  0.73454415  0.36622979    -0.57100
H513        H  0.75664593  0.69334258  0.39970032     0.18500
O514        O  0.75257907  0.75813669  0.52391082    -0.63800
H515        H  0.69375519  0.80246191  0.48903921     0.16900
C516        C  0.62814356  0.81729960  0.43438565     0.29200
C517        C  0.60051413  0.84708288  0.41774270    -0.24700
C518        C  0.60536564  0.86360896  0.37822455    -0.24000
C519        C  0.63835682  0.84892862  0.35500895     0.40600
C520        C  0.66594315  0.81929639  0.37173896    -0.26400
O521        O  0.62229540  0.80218248  0.47308606    -0.58300
H522        H  0.57550919  0.85777814  0.43629030     0.16300
O523        O  0.64383003  0.86290787  0.31562954    -0.59700
H524        H  0.69141814  0.80931738  0.35371311     0.14700
H525        H  0.75935478  0.78419082  0.52343065     0.46600
H526        H  0.61175741  0.77870647  0.46721972     0.42000
H527        H  0.66032717  0.88206193  0.31979646     0.45400
H528        H  0.67698197  0.71850259  0.37199958     0.36900
C529        C  0.75702057  0.34528792  0.66345089    -0.27400
C530        C  0.78961138  0.31622500  0.66215928     0.02300
C531        C  0.81959819  0.31882401  0.68919740     0.30300
C532        C  0.81644170  0.34999134  0.71737848    -0.19100
C533        C  0.78330599  0.37863944  0.71959199    -0.28500
C534        C  0.75354569  0.37606138  0.69189459     0.44400
C535        C  0.78983319  0.28203016  0.63482467     0.05600
O536        O  0.85231746  0.29153542  0.68755244    -0.57100
H537        H  0.83991806  0.35137281  0.73790077     0.18500
O538        O  0.72087562  0.40342093  0.69209286    -0.63800
H539        H  0.73354347  0.34346923  0.64306380     0.16900
C540        C  0.79041008  0.24515997  0.65273922     0.29200
C541        C  0.77961429  0.21585165  0.62874933    -0.24700
C542        C  0.76779070  0.22289292  0.58708583    -0.24000
C543        C  0.77108346  0.25822529  0.56787375     0.40600
C544        C  0.78191433  0.28761506  0.59181441    -0.26400
O545        O  0.79736065  0.23878696  0.69475840    -0.58300
H546        H  0.77645499  0.18904501  0.64408081     0.16300
O547        O  0.75862090  0.26632935  0.52761607    -0.59700
H548        H  0.78110575  0.31589364  0.57768412     0.14700
H549        H  0.70372384  0.39310330  0.71158880     0.46600
H550        H  0.77255582  0.24657092  0.70883571     0.42000
H551        H  0.78064693  0.25625408  0.50945096     0.45400
H552        H  0.85332400  0.27698542  0.71442189     0.36900
C553        C  0.79666087  0.57681863  0.65771560    -0.27400
C554        C  0.76164937  0.59519657  0.64181438     0.02300
C555        C  0.72862145  0.58831171  0.66127379     0.30300
C556        C  0.73094389  0.56302327  0.69593568    -0.19100
C557        C  0.76608454  0.54387897  0.71152441    -0.28500
C558        C  0.79912558  0.55138637  0.69205370     0.44400
C559        C  0.76069446  0.62038609  0.60407782     0.05600
O560        O  0.69398844  0.60579272  0.64637842    -0.57100
H561        H  0.70511545  0.55779085  0.71008651     0.18500
O562        O  0.83409834  0.53368640  0.70583735    -0.63800
H563        H  0.82233420  0.58177457  0.64290271     0.16900
C564        C  0.77472498  0.65504044  0.60597309     0.29200
C565        C  0.78263074  0.67353646  0.56885223    -0.24700
C566        C  0.77684244  0.65782745  0.52949011    -0.24000
C567        C  0.75960720  0.62522226  0.52759636     0.40600
C568        C  0.75145099  0.60678891  0.56479254    -0.26400
O569        O  0.78391788  0.66911765  0.64385372    -0.58300
H570        H  0.79677048  0.69799595  0.57084408     0.16300
O571        O  0.75429020  0.60881632  0.48961338    -0.59700
H572        H  0.74073662  0.58009612  0.56284472     0.14700
H573        H  0.84075192  0.55116346  0.72776966     0.46600
H574        H  0.75991774  0.68411457  0.65519018     0.42000
H575        H  0.73076725  0.62472903  0.47833886     0.45400
H576        H  0.68834972  0.63156368  0.66020257     0.36900
C577        C  0.59899195  0.29397041  0.90197400    -0.27400
C578        C  0.62908412  0.30524195  0.92344101     0.02300
C579        C  0.64228903  0.28551255  0.96068008     0.30300
C580        C  0.62591972  0.25516731  0.97565042    -0.19100
C581        C  0.59638557  0.24342725  0.95401917    -0.28500
C582        C  0.58280205  0.26310652  0.91690006     0.44400
C583        C  0.64770554  0.33655298  0.90667974     0.05600
O584        O  0.67206173  0.29487816  0.98210471    -0.57100
H585        H  0.63697922  0.24003338  0.00400227     0.18500
O586        O  0.55438174  0.25197188  0.89460868    -0.63800
H587        H  0.58831977  0.30884857  0.87337300     0.16900
C588        C  0.66351071  0.33433380  0.86600886     0.29200
C589        C  0.68397669  0.36226255  0.85243998    -0.24700
C590        C  0.68942057  0.39266372  0.87899582    -0.24000
C591        C  0.67301446  0.39522072  0.91943786     0.40600
C592        C  0.65216561  0.36757756  0.93276227    -0.26400
O593        O  0.66111149  0.30365810  0.84025262    -0.58300
H594        H  0.69653210  0.35945946  0.82135162     0.16300
O595        O  0.67634093  0.42514453  0.94586628    -0.59700
H596        H  0.63983576  0.37006268  0.96396050     0.15700
H597        H  0.56697486  0.23031889  0.87650697     0.46600
H598        H  0.64131559  0.31404577  0.81953806     0.42000
H599        H  0.69749523  0.41443756  0.96482317     0.45400
H600        H  0.69485661  0.27962220  0.96844695     0.36900
C601        C  0.95084458  0.25056716  0.94574141    -0.27400
C602        C  0.94964566  0.29014230  0.95308746     0.02300
C603        C  0.97888110  0.30149595  0.97602087     0.30300
C604        C  0.00999593  0.27360613  0.98875877    -0.19100
C605        C  0.01259388  0.23436151  0.97847204    -0.28500
C606        C  0.98213312  0.22277587  0.95800523     0.44400
C607        C  0.92004760  0.31941436  0.93275729     0.05600
O608        O  0.97732015  0.33985806  0.98565551    -0.57100
H609        H  0.53728611  0.28334229  0.00005356     0.18500
O610        O  0.98379274  0.18465512  0.94736693    -0.63800
H611        H  0.92852933  0.24143209  0.92818453     0.16900
C612        C  0.92988078  0.34444332  0.90182788     0.29200
C613        C  0.90201517  0.37174536  0.88221990    -0.24700
C614        C  0.86378956  0.37464196  0.89260418    -0.24000
C615        C  0.85386099  0.34883877  0.92299918     0.40600
C616        C  0.88191493  0.32129198  0.94249940    -0.26400
O617        O  0.96677809  0.34225395  0.89026946    -0.58300
H618        H  0.91054811  0.39103569  0.85904741     0.16300
O619        O  0.81689216  0.34969917  0.93334162    -0.59700
H620        H  0.87392235  0.30160296  0.96559765     0.14700
H621        H  0.99683619  0.18140358  0.91976368     0.46600
H622        H  0.97192045  0.32131344  0.86896724     0.42000
H623        H  0.81225979  0.36587459  0.95903041     0.45400
H624        H  0.99692383  0.34825546  0.96797197     0.36900
C625        C  0.50700969  0.15982340  0.10794628    -0.27400
C626        C  0.50473940  0.12039861  0.10670450     0.02300
C627        C  0.01182581  0.10048600  0.06666386     0.30300
C628        C  0.02181778  0.11927590  0.03066862    -0.19100
C629        C  0.52766553  0.15720683  0.03484671    -0.28500
C630        C  0.51813319  0.17839847  0.07220010     0.44400
C631        C  0.50405418  0.09834687  0.14634221     0.05600
O632        O  0.00835083  0.06230953  0.06429692    -0.57100
H633        H  0.02782484  0.10291105  0.00180006     0.18500
O634        O  0.52430826  0.21556265  0.07577635    -0.63800
H635        H  0.50293826  0.17538491  0.13747159     0.16900
C636        C  0.53823087  0.08224520  0.16599165     0.29200
C637        C  0.53861517  0.05763628  0.20067133    -0.24700
C638        C  0.50511201  0.04843523  0.21648064    -0.24000
C639        C  0.47057325  0.06598802  0.19779152     0.40600
C640        C  0.47030270  0.09049367  0.16270820    -0.26400
O641        O  0.57162036  0.08969855  0.15073808    -0.58300
H642        H  0.56545322  0.04487253  0.21453456     0.16300
O643        O  0.94226016  0.07026958  0.22231181    -0.59700
H644        H  0.94855828  0.11284985  0.15613936     0.14700
H645        H  0.49919013  0.23248942  0.07234441     0.46600
H646        H  0.58059677  0.06872748  0.13018723     0.42000
H647        H  0.93979719  0.09003220  0.24487818     0.45400
H648        H  0.03445257  0.04709707  0.06483464     0.36900
C649        C  0.65700613  0.60170422  0.94511885    -0.27400
C650        C  0.62435560  0.61647715  0.92235931     0.02300
C651        C  0.62034015  0.60257598  0.88157296     0.30300
C652        C  0.64836897  0.57355150  0.86439092    -0.19100
C653        C  0.68092356  0.55789961  0.88733283    -0.28500
C654        C  0.68525066  0.57281647  0.92795415     0.44400
C655        C  0.59371264  0.64522708  0.94174732     0.05600
O656        O  0.58875702  0.61679974  0.85849412    -0.57100
H657        H  0.64430768  0.56292270  0.83316785     0.18500
O658        O  0.71662060  0.55907276  0.95155766    -0.63800
H659        H  0.66039839  0.61231838  0.97652073     0.16900
C660        C  0.56918919  0.63350314  0.97146175     0.29200
C661        C  0.53763014  0.66003037  0.98583569    -0.24700
C662        C  0.53015093  0.69836888  0.97086403    -0.24000
C663        C  0.55563628  0.71047389  0.94253216     0.40600
C664        C  0.58709575  0.68394502  0.92808143    -0.26400
O665        O  0.57506504  0.59579199  0.98533406    -0.58300
H666        H  0.51811523  0.65037281  0.00741605     0.16300
O667        O  0.54877232  0.74761835  0.92690861    -0.59700
H668        H  0.60568958  0.69324323  0.90509263     0.14700
H669        H  0.71019441  0.53737048  0.96830794     0.46600
H670        H  0.56145158  0.58207651  0.96517402     0.42000
H671        H  0.53153025  0.74717852  0.90287641     0.45400
H672        H  0.57023140  0.60065239  0.86665760     0.36900
C673        C  0.89465365  0.55643901  0.93281073    -0.27400
C674        C  0.89972969  0.58766174  0.90713695     0.02300
C675        C  0.88362301  0.59143915  0.86681485     0.30300
C676        C  0.86196547  0.56497178  0.85317925    -0.19100
C677        C  0.85550042  0.53467958  0.87946196    -0.28500
C678        C  0.87287482  0.52996608  0.91921840     0.44400
C679        C  0.91842584  0.61835624  0.92403160     0.05600
O680        O  0.88767398  0.62178682  0.84106709    -0.57100
H681        H  0.84922869  0.56890158  0.82233651     0.18500
O682        O  0.86884704  0.49965227  0.94503258    -0.63800
H683        H  0.90718288  0.55296059  0.96377424     0.16900
C684        C  0.90395229  0.63896000  0.96027385     0.29200
C685        C  0.91900329  0.67046790  0.97381829    -0.24700
C686        C  0.94830221  0.68237575  0.95153634    -0.24000
C687        C  0.96324088  0.66163469  0.91554830     0.40600
C688        C  0.94851164  0.62955957  0.90222806    -0.26400
O689        O  0.87396864  0.62957257  0.98169589    -0.58300
H690        H  0.90700534  0.68642953  0.00133997     0.16300
O691        O  0.49196298  0.67167244  0.89592749    -0.59700
H692        H  0.95983565  0.61407002  0.87418134     0.14700
H693        H  0.88805308  0.47730765  0.93521413     0.46600
H694        H  0.85129915  0.64394318  0.96716768     0.42000
H695        H  0.47809971  0.69121721  0.87621628     0.45400
H696        H  0.86686209  0.64336820  0.84900729     0.36900
C697        C  0.52709791  0.83522467  0.05443931    -0.27400
C698        C  0.53350713  0.81633751  0.09334443     0.02300
C699        C  0.03421293  0.77240005  0.09831857     0.30300
C700        C  0.02470071  0.75297739  0.06262044    -0.19100
C701        C  0.51444617  0.77608929  0.02287779    -0.28500
C702        C  0.51752754  0.81534725  0.01927533     0.44400
C703        C  0.53122073  0.83997536  0.13194451     0.05600
O704        O  0.03871111  0.75327552  0.13612554    -0.57100
H705        H  0.02073852  0.72328348  0.06577019     0.18500
O706        O  0.50844149  0.83512376  0.98231299    -0.63800
H707        H  0.52646635  0.86615868  0.05218478     0.16900
C708        C  0.56330571  0.84387167  0.15483435     0.29200
C709        C  0.55956607  0.86738651  0.19080424    -0.24700
C710        C  0.52393010  0.88744083  0.20428417    -0.24000
C711        C  0.99433231  0.88660604  0.17795269     0.40600
C712        C  0.99801377  0.86178986  0.14333064    -0.26400
O713        O  0.59833011  0.82502439  0.14217977    -0.58300
H714        H  0.58472306  0.87049482  0.20765959     0.16300
O715        O  0.96017613  0.91051605  0.18511169    -0.59700
H716        H  0.97406350  0.86252998  0.12283544     0.14700
H717        H  0.48321636  0.85151923  0.98706062     0.46600
H718        H  0.60833147  0.84412000  0.12459022     0.42000
H719        H  0.96046687  0.93393950  0.16769733     0.45400
H720        H  0.06554239  0.74015298  0.13673125     0.36900
loop_ 
_geom_bond_atom_site_label_1 
_geom_bond_atom_site_label_2 
_geom_bond_distance 
_geom_bond_site_symmetry_2 
_ccdc_geom_bond_type 
N1            C2   1.359       .  A
N1          C365   1.360       .  A
N1          C302   1.445   1_655  S
C2          C341   1.480   1_656  S
C2          C363   1.384       .  A
C3            C4   1.371       .  A
C3          C362   1.383       .  A
C3            H6   1.082   1_556  S
C4            C5   1.381       .  A
C4            H7   1.082       .  S
C5          N361   1.359       .  A
C5          C326   1.482       .  S
N8           C12   1.360       .  A
N8            C9   1.359   1_556  A
N8          C605   1.442       .  S
C9          C269   1.482       .  S
C9           C10   1.382   1_554  A
C10          C11   1.372       .  A
C10          H13   1.082   1_556  S
C11          C12   1.382       .  A
C11          H14   1.082       .  S
C12         C221   1.484       .  S
O15          C30   1.259       .  A
O15         Al23   1.888       .  S
C16         C230   1.487       .  S
C16          O26   1.260       .  A
C16          O17   1.266       .  A
O17         Al19   1.935       .  S
O18          C20   1.261       .  A
O18         Al19   1.899       .  S
Al19         O27   1.894       .  S
Al19         O29   1.937       .  S
Al19         O28   1.782       .  S
C20         C254   1.492       .  S
C20          O33   1.266       .  A
O21          C31   1.260       .  A
O21         Al23   1.891       .  S
O22          C35   1.261       .  A
O22         Al32   1.898       .  S
Al23         O36   1.927       .  S
Al23         O33   1.928       .  S
Al23         O28   1.781       .  S
O24          C31   1.267       .  A
O24         Al32   1.928       .  S
O25          C34   1.267       .  A
O25         Al32   1.934       .  S
O26         Al32   1.895       .  S
O27          C34   1.261       .  A
O28         Al32   1.781       .  S
O29          C30   1.267       .  A
C30         C317   1.481       .  S
C31         C173   1.488       .  S
C34         C293   1.491       .  S
C35         C197   1.489       .  S
C35          O36   1.265       .  A
N37          C41   1.358       .  A
N37          C38   1.355       .  A
N37         C149   1.440       .  S
C38         C206   1.473       .  S
C38          C39   1.381       .  A
C39          C40   1.372       .  A
C39          H42   1.082       .  S
C40          C41   1.382       .  A
C40          H43   1.082       .  S
C41         C125   1.482       .  S
N44          C48   1.359       .  A
N44          C45   1.358       .  A
N44          C86   1.441       .  S
C45         C182   1.475       .  S
C45          C46   1.382       .  A
C46          C47   1.369       .  A
C46          H49   1.082       .  S
C47          C48   1.381       .  A
C47          H50   1.082       .  S
C48         C101   1.477       .  S
O51          C66   1.262       .  A
O51         Al59   1.894       .  S
C52         C134   1.485       .  S
C52          O62   1.258       .  A
C52          O53   1.265       .  A
O53        Al415   1.921       .  S
O54          C56   1.261       .  A
O54         Al55   1.904       .  S
Al55         O65   1.919       .  S
Al55        O413   1.920   1_455  S
Al55        O423   1.897   1_465  S
Al55         O64   1.783       .  S
C56         C158   1.490       .  S
C56          O69   1.263       .  A
O57          C67   1.262       .  A
O57         Al59   1.899       .  S
O58         C431   1.260       .  A
O58         Al68   1.899   1_545  S
Al59         O72   1.922       .  S
Al59         O69   1.918       .  S
Al59         O64   1.783       .  S
O60         C427   1.265       .  A
O60         Al68   1.921       .  S
O61          C70   1.265   1_565  A
O61         Al68   1.928       .  S
O62         Al68   1.884       .  S
O63          C70   1.260       .  A
O63        Al415   1.897   1_545  S
O64        Al428   1.784   1_455  S
O65          C66   1.265       .  A
C66         C110   1.483   1_565  S
C67         C350   1.489       .  S
C67         O420   1.266   1_455  A
Al68        O424   1.784       .  S
C70          C77   1.489       .  S
C71         C278   1.491       .  S
C71          O72   1.265   1_545  A
C71         O418   1.260   1_455  A
C73          C74   1.405       .  A
C73          C78   1.403       .  A
C73          H83   1.083       .  S
C74          C79   1.492       .  S
C74          C75   1.411       .  A
C75          C76   1.402       .  A
C75          O80   1.372       .  S
C76          C77   1.406       .  A
C76          H81   1.083       .  S
C77          C78   1.413       .  A
C78          O82   1.372       .  S
C79          C84   1.412       .  A
C79          C88   1.406       .  A
O80          H96   0.992       .  S
O82          H93   0.992       .  S
C84          C85   1.403       .  A
C84          O89   1.372       .  S
C85          C86   1.401       .  A
C85          H90   1.083       .  S
C86          C87   1.407       .  A
C87          C88   1.402       .  A
C87          O91   1.371       .  S
C88          H92   1.083       .  S
O89          H94   0.992       .  S
O91          H95   0.991       .  S
C97          C98   1.405       .  A
C97         C102   1.401       .  A
C97         H107   1.084       .  S
C98         C103   1.481       .  S
C98          C99   1.407       .  A
C99         C100   1.398       .  A
C99         O104   1.372       .  S
C100        C101   1.402       .  A
C100        H105   1.084       .  S
C101        C102   1.408       .  A
C102        O106   1.371       .  S
C103        C108   1.407       .  A
C103        C112   1.402       .  A
O104        H120   0.992       .  S
O106        H117   0.992       .  S
C108        C109   1.400       .  A
C108        O113   1.371       .  S
C109        C110   1.406       .  A
C109        H114   1.083       .  S
C110        C111   1.413       .  A
C111        C112   1.399       .  A
C111        O115   1.372   1_545  S
C112        H116   1.084       .  S
O113        H118   0.992       .  S
O115        H119   0.992   1_565  S
C121        C122   1.403       .  A
C121        C126   1.402       .  A
C121        H131   1.084       .  S
C122        C127   1.480       .  S
C122        C123   1.407       .  A
C123        C124   1.400       .  A
C123        O128   1.373       .  S
C124        C125   1.403       .  A
C124        H129   1.080       .  S
C125        C126   1.410       .  A
C126        O130   1.373       .  S
C127        C132   1.408       .  A
C127        C136   1.401       .  A
O128        H144   0.992       .  S
O130        H141   0.992       .  S
C132        C133   1.398       .  A
C132        O137   1.372       .  S
C133        C134   1.406       .  A
C133        H138   1.083       .  S
C134        C135   1.415       .  A
C135        C136   1.400       .  A
C135        O139   1.372       .  S
C136        H140   1.084       .  S
O137        H142   0.992       .  S
O139        H143   0.992       .  S
C145        C146   1.408       .  A
C145        C150   1.408       .  A
C145        H155   1.083       .  S
C146        C151   1.491       .  S
C146        C147   1.410       .  A
C147        C148   1.398       .  A
C147        O152   1.372       .  S
C148        C149   1.402       .  A
C148        H153   1.083       .  S
C149        C150   1.405       .  A
C150        O154   1.372       .  S
C151        C156   1.410       .  A
C151        C160   1.404       .  A
O152        H168   0.992       .  S
O154        H165   0.992       .  S
C156        C157   1.405       .  A
C156        O161   1.371       .  S
C157        C158   1.408       .  A
C157        H162   1.083       .  S
C158        C159   1.413       .  A
C159        C160   1.400       .  A
C159        O163   1.372       .  S
C160        H164   1.083       .  S
O161        H166   0.992       .  S
O163        H167   0.992       .  S
C169        C170   1.402       .  A
C169        C174   1.398       .  A
C169        H179   1.084       .  S
C170        C175   1.481       .  S
C170        C171   1.405       .  A
C171        C172   1.404       .  A
C171        O176   1.372       .  S
C172        C173   1.410       .  A
C172        H177   1.083       .  S
C173        C174   1.413       .  A
C174        O178   1.372       .  S
C175        C180   1.407       .  A
C175        C184   1.406       .  A
O176        H192   0.992       .  S
O178        H189   0.992       .  S
C180        C181   1.398       .  A
C180        O185   1.372       .  S
C181        C182   1.403       .  A
C181        H186   1.084       .  S
C182        C183   1.407       .  A
C183        C184   1.404       .  A
C183        O187   1.371       .  S
C184        H188   1.084       .  S
O185        H190   0.992       .  S
O187        H191   0.992       .  S
C193        C194   1.403       .  A
C193        C198   1.400       .  A
C193        H203   1.084       .  S
C194        C199   1.482       .  S
C194        C195   1.405       .  A
C195        C196   1.404       .  A
C195        O200   1.371       .  S
C196        C197   1.409       .  A
C196        H201   1.083       .  S
C197        C198   1.413       .  A
C198        O202   1.372       .  S
C199        C204   1.407       .  A
C199        C208   1.404       .  A
O200        H216   0.992       .  S
O202        H213   0.992       .  S
C204        C205   1.400       .  A
C204        O209   1.371       .  S
C205        C206   1.403       .  A
C205        H210   1.084       .  S
C206        C207   1.406       .  A
C207        C208   1.402       .  A
C207        O211   1.371       .  S
C208        H212   1.083       .  S
O209        H214   0.992       .  S
O211        H215   0.992       .  S
C217        C218   1.408       .  A
C217        C222   1.408       .  A
C217        H227   1.083       .  S
C218        C223   1.488       .  S
C218        C219   1.407       .  A
C219        C220   1.396       .  A
C219        O224   1.372       .  S
C220        C221   1.403       .  A
C220        H225   1.084   1_556  S
C221        C222   1.409       .  A
C222        O226   1.371       .  S
C223        C228   1.408       .  A
C223        C232   1.404       .  A
O224        H240   0.992       .  S
O226        H237   0.991       .  S
C228        C229   1.404       .  A
C228        O233   1.372       .  S
C229        C230   1.407       .  A
C229        H234   1.084       .  S
C230        C231   1.412       .  A
C231        C232   1.403       .  A
C231        O235   1.372       .  S
C232        H236   1.084       .  S
O233        H238   0.992       .  S
O235        H239   0.992       .  S
C241        C242   1.402       .  A
C241        C246   1.402       .  A
C241        H251   1.084       .  S
C242        C247   1.484       .  S
C242        C243   1.408       .  A
C243        C244   1.402       .  A
C243        O248   1.372       .  S
C244        C245   1.404       .  A
C244        H609   1.082   1_556  S
C245        N368   1.446       .  S
C245        C246   1.413       .  A
C246        O250   1.371       .  S
C247        C252   1.407       .  A
C247        C256   1.402       .  A
O248        H264   0.992       .  S
H249        C604   1.083   1_554  S
O250        H261   0.992       .  S
C252        C253   1.399       .  A
C252        O257   1.372       .  S
C253        C254   1.408       .  A
C253        H258   1.083       .  S
C254        C255   1.416       .  A
C255        C256   1.405       .  A
C255        O259   1.371       .  S
C256        H260   1.084       .  S
O257        H262   0.992       .  S
O259        H263   0.992       .  S
C265        C266   1.402       .  A
C265        C270   1.404       .  A
C265        H275   1.083       .  S
C266        C271   1.481       .  S
C266        C627   1.406       .  A
C267        C268   1.400       .  A
C267        C626   1.406       .  A
C267        O272   1.372       .  S
C268        C629   1.405       .  A
C268        H273   1.084       .  S
C269        C270   1.410       .  A
C269        C628   1.404       .  A
C270        O274   1.371       .  S
C271        C276   1.405       .  A
C271        C280   1.401   1_455  A
O272        H288   0.992       .  S
O274        H285   0.992       .  S
C276        C277   1.398       .  A
C276        O281   1.372       .  S
C277        C278   1.407       .  A
C277        H282   1.083       .  S
C278        C279   1.417   1_455  A
C279        C280   1.406       .  A
C279        O643   1.371       .  S
C280        H644   1.083       .  S
O281        H286   0.992       .  S
O283        C639   1.371       .  S
O283        H287   0.992       .  S
H284        C640   1.083       .  S
C289        C290   1.402       .  A
C289        C294   1.403       .  A
C289        H299   1.084       .  S
C290        C295   1.485       .  S
C290        C291   1.408       .  A
C291        C292   1.403       .  A
C291        O296   1.373       .  S
C292        C293   1.407       .  A
C292        H297   1.083       .  S
C293        C294   1.415       .  A
C294        O298   1.372       .  S
C295        C300   1.409       .  A
C295        C304   1.402       .  A
O296        H312   0.992       .  S
O298        H309   0.992       .  S
C300        C301   1.404       .  A
C300        O305   1.372       .  S
C301        C302   1.405       .  A
C301        H306   1.083       .  S
C302        C303   1.411       .  A
C303        C304   1.401       .  A
C303        O307   1.371       .  S
C304        H308   1.084       .  S
O305        H310   0.992       .  S
O307        H311   0.992       .  S
C313        C314   1.405       .  A
C313        C318   1.402       .  A
C313        H323   1.084       .  S
C314        C319   1.484       .  S
C314        C315   1.408       .  A
C315        C316   1.399       .  A
C315        O320   1.372       .  S
C316        C317   1.405       .  A
C316        H321   1.084       .  S
C317        C318   1.411       .  A
C318        O322   1.372       .  S
C319        C324   1.407       .  A
C319        C328   1.407       .  A
O320        H336   0.992       .  S
O322        H333   0.992       .  S
C324        C325   1.395       .  A
C324        O329   1.372       .  S
C325        C326   1.404       .  A
C325        H330   1.084   1_556  S
C326        C327   1.409       .  A
C327        C328   1.405       .  A
C327        O691   1.371       .  S
C328        H332   1.083       .  S
O329        H334   0.992       .  S
O331        C687   1.371       .  S
O331        H335   0.992       .  S
C337        C338   1.402       .  A
C337        C342   1.399       .  A
C337        H347   1.084       .  S
C338        C343   1.481       .  S
C338        C699   1.408       .  A
C339        C340   1.402       .  A
C339        C698   1.406       .  A
C339        O344   1.371       .  S
C340        C701   1.404       .  A
C340        H345   1.084       .  S
C341        C342   1.408       .  A
C341        C700   1.405       .  A
C342        O346   1.373   1_554  S
C343        C348   1.405       .  A
C343        C712   1.401   1_455  A
O344        H360   0.991       .  S
O346        H357   0.992   1_455  S
C348        C349   1.405       .  A
C348        O353   1.371       .  S
C349        C350   1.411       .  A
C349        H354   1.083       .  S
C350        C711   1.414   1_455  A
C351        C352   1.398       .  A
C351        C710   1.413       .  A
C351        O355   1.372       .  S
C352        C703   1.401       .  A
C352        H356   1.084       .  S
O353        H358   0.992       .  S
O355        H359   0.992       .  S
N361        C362   1.358       .  A
N361        C662   1.440       .  S
C362        C701   1.478   1_556  S
C363        C364   1.370       .  A
C363        H366   1.082   1_556  S
C364        C365   1.380       .  A
C364        H367   1.082       .  S
C365        C686   1.478       .  S
N368        C372   1.363       .  A
N368        C369   1.362   1_556  A
C369        C629   1.485       .  S
C369        C370   1.383   1_554  A
C370        C371   1.371       .  A
C370        H373   1.082   1_556  S
C371        C372   1.381       .  A
C371        H374   1.082       .  S
C372        C581   1.485       .  S
O375        C390   1.260       .  A
O375       Al383   1.884       .  S
C376        C590   1.489       .  S
C376        O386   1.259       .  A
C376        O377   1.266       .  A
O377       Al379   1.935       .  S
O378        C380   1.259       .  A
O378       Al379   1.895       .  S
Al379       O387   1.890       .  S
Al379       O389   1.938       .  S
Al379       O388   1.784       .  S
C380        C614   1.488       .  S
C380        O393   1.266       .  A
O381        C391   1.261       .  A
O381       Al383   1.889       .  S
O382        C395   1.261       .  A
O382       Al392   1.904       .  S
Al383       O396   1.929       .  S
Al383       O393   1.928       .  S
Al383       O388   1.781       .  S
O384        C391   1.267       .  A
O384       Al392   1.928       .  S
O385        C394   1.268       .  A
O385       Al392   1.933       .  S
O386       Al392   1.895       .  S
O387        C394   1.260       .  A
O388       Al392   1.781       .  S
O389        C390   1.268       .  A
C390        C677   1.480       .  S
C391        C533   1.488       .  S
C394        C653   1.491       .  S
C395        C557   1.493       .  S
C395        O396   1.265       .  A
N397        C401   1.360       .  A
N397        C398   1.357       .  A
N397        C509   1.440       .  S
C398        C566   1.477       .  S
C398        C399   1.381       .  A
C399        C400   1.373       .  A
C399        H402   1.082       .  S
C400        C401   1.383       .  A
C400        H403   1.082       .  S
C401        C485   1.486       .  S
N404        C408   1.358       .  A
N404        C405   1.357       .  A
N404        C446   1.441       .  S
C405        C542   1.472       .  S
C405        C406   1.382       .  A
C406        C407   1.370       .  A
C406        H409   1.082       .  S
C407        C408   1.380       .  A
C407        H410   1.082       .  S
C408        C461   1.474       .  S
O411        C426   1.261   1_565  A
O411       Al419   1.892       .  S
C412        C494   1.486       .  S
C412        O422   1.258       .  A
C412        O413   1.265       .  A
O414        C416   1.261       .  A
O414       Al415   1.900       .  S
Al415       O425   1.916       .  S
Al415       O424   1.784       .  S
C416        C518   1.489       .  S
C416        O429   1.264       .  A
O417        C427   1.261       .  A
O417       Al419   1.895       .  S
O418       Al428   1.901   1_545  S
Al419       O432   1.921       .  S
Al419       O429   1.922       .  S
Al419       O424   1.783       .  S
O420       Al428   1.921       .  S
O421        C430   1.265       .  A
O421       Al428   1.925   1_545  S
O422       Al428   1.887       .  S
O423        C430   1.260       .  A
O425        C426   1.264   1_565  A
C426        C470   1.482       .  S
C427        C710   1.487       .  S
C430        C437   1.489       .  S
C431        C638   1.487       .  S
C431        O432   1.265   1_545  A
C433        C434   1.405       .  A
C433        C438   1.403       .  A
C433        H443   1.083       .  S
C434        C439   1.493       .  S
C434        C435   1.411       .  A
C435        C436   1.402       .  A
C435        O440   1.372       .  S
C436        C437   1.406       .  A
C436        H441   1.083       .  S
C437        C438   1.413       .  A
C438        O442   1.372       .  S
C439        C444   1.412       .  A
C439        C448   1.407       .  A
O440        H456   0.992       .  S
O442        H453   0.992       .  S
C444        C445   1.403       .  A
C444        O449   1.372       .  S
C445        C446   1.401       .  A
C445        H450   1.083       .  S
C446        C447   1.407       .  A
C447        C448   1.402       .  A
C447        O451   1.371       .  S
C448        H452   1.083       .  S
O449        H454   0.992       .  S
O451        H455   0.991       .  S
C457        C458   1.405       .  A
C457        C462   1.401       .  A
C457        H467   1.084       .  S
C458        C463   1.479       .  S
C458        C459   1.407       .  A
C459        C460   1.397       .  A
C459        O464   1.372       .  S
C460        C461   1.402       .  A
C460        H465   1.084       .  S
C461        C462   1.407       .  A
C462        O466   1.371       .  S
C463        C468   1.407       .  A
C463        C472   1.401       .  A
O464        H480   0.992       .  S
O466        H477   0.992       .  S
C468        C469   1.400       .  A
C468        O473   1.371       .  S
C469        C470   1.407       .  A
C469        H474   1.083       .  S
C470        C471   1.413       .  A
C471        C472   1.397       .  A
C471        O475   1.372   1_545  S
C472        H476   1.084       .  S
O473        H478   0.992       .  S
O475        H479   0.992   1_565  S
C481        C482   1.403       .  A
C481        C486   1.404       .  A
C481        H491   1.084       .  S
C482        C487   1.482       .  S
C482        C483   1.407       .  A
C483        C484   1.400       .  A
C483        O488   1.373       .  S
C484        C485   1.403       .  A
C484        H489   1.079       .  S
C485        C486   1.411       .  A
C486        O490   1.373       .  S
C487        C492   1.408       .  A
C487        C496   1.402       .  A
O488        H504   0.992       .  S
O490        H501   0.992       .  S
C492        C493   1.397       .  A
C492        O497   1.372       .  S
C493        C494   1.405       .  A
C493        H498   1.083       .  S
C494        C495   1.416       .  A
C495        C496   1.402       .  A
C495        O499   1.372       .  S
C496        H500   1.084       .  S
O497        H502   0.992       .  S
O499        H503   0.992       .  S
C505        C506   1.409       .  A
C505        C510   1.407       .  A
C505        H515   1.083       .  S
C506        C511   1.493       .  S
C506        C507   1.411       .  A
C507        C508   1.399       .  A
C507        O512   1.372       .  S
C508        C509   1.402       .  A
C508        H513   1.083       .  S
C509        C510   1.404       .  A
C510        O514   1.372       .  S
C511        C516   1.410       .  A
C511        C520   1.405       .  A
O512        H528   0.992       .  S
O514        H525   0.992       .  S
C516        C517   1.404       .  A
C516        O521   1.371       .  S
C517        C518   1.408       .  A
C517        H522   1.083       .  S
C518        C519   1.412       .  A
C519        C520   1.401       .  A
C519        O523   1.372       .  S
C520        H524   1.083       .  S
O521        H526   0.992       .  S
O523        H527   0.992       .  S
C529        C530   1.403       .  A
C529        C534   1.398       .  A
C529        H539   1.084       .  S
C530        C535   1.483       .  S
C530        C531   1.406       .  A
C531        C532   1.404       .  A
C531        O536   1.372       .  S
C532        C533   1.410       .  A
C532        H537   1.083       .  S
C533        C534   1.412       .  A
C534        O538   1.372       .  S
C535        C540   1.409       .  A
C535        C544   1.405       .  A
O536        H552   0.992       .  S
O538        H549   0.992       .  S
C540        C541   1.399       .  A
C540        O545   1.372       .  S
C541        C542   1.402       .  A
C541        H546   1.084       .  S
C542        C543   1.406       .  A
C543        C544   1.401       .  A
C543        O547   1.371       .  S
C544        H548   1.084       .  S
O545        H550   0.992       .  S
O547        H551   0.991       .  S
C553        C554   1.402       .  A
C553        C558   1.401       .  A
C553        H563   1.084       .  S
C554        C559   1.486       .  S
C554        C555   1.406       .  A
C555        C556   1.406       .  A
C555        O560   1.371       .  S
C556        C557   1.411       .  A
C556        H561   1.083       .  S
C557        C558   1.414       .  A
C558        O562   1.372       .  S
C559        C564   1.408       .  A
C559        C568   1.405       .  A
O560        H576   0.992       .  S
O562        H573   0.992       .  S
C564        C565   1.401       .  A
C564        O569   1.371       .  S
C565        C566   1.403       .  A
C565        H570   1.084       .  S
C566        C567   1.407       .  A
C567        C568   1.405       .  A
C567        O571   1.371       .  S
C568        H572   1.083       .  S
O569        H574   0.992       .  S
O571        H575   0.992       .  S
C577        C578   1.410       .  A
C577        C582   1.408       .  A
C577        H587   1.083       .  S
C578        C583   1.492       .  S
C578        C579   1.409       .  A
C579        C580   1.397       .  A
C579        O584   1.372       .  S
C580        C581   1.403       .  A
C580        H585   1.084   1_556  S
C581        C582   1.408       .  A
C582        O586   1.371       .  S
C583        C588   1.409       .  A
C583        C592   1.406       .  A
O584        H600   0.992       .  S
O586        H597   0.992       .  S
C588        C589   1.405       .  A
C588        O593   1.372       .  S
C589        C590   1.407       .  A
C589        H594   1.084       .  S
C590        C591   1.411       .  A
C591        C592   1.403       .  A
C591        O595   1.372       .  S
C592        H596   1.084       .  S
O593        H598   0.992       .  S
O595        H599   0.992       .  S
C601        C602   1.402       .  A
C601        C606   1.400       .  A
C601        H611   1.084       .  S
C602        C607   1.483       .  S
C602        C603   1.409       .  A
C603        C604   1.402   1_655  A
C603        O608   1.372       .  S
C604        C605   1.402       .  A
C605        C606   1.410   1_455  A
C606        O610   1.371       .  S
C607        C612   1.407       .  A
C607        C616   1.403       .  A
O608        H624   0.992       .  S
O610        H621   0.992       .  S
C612        C613   1.398       .  A
C612        O617   1.372       .  S
C613        C614   1.406       .  A
C613        H618   1.083       .  S
C614        C615   1.415       .  A
C615        C616   1.405       .  A
C615        O619   1.372       .  S
C616        H620   1.084       .  S
O617        H622   0.992       .  S
O619        H623   0.992       .  S
C625        C626   1.403       .  A
C625        C630   1.405       .  A
C625        H635   1.083       .  S
C626        C631   1.481       .  S
C627        C628   1.401       .  A
C627        O632   1.372       .  S
C628        H633   1.084       .  S
C629        C630   1.410       .  A
C630        O634   1.371       .  S
C631        C636   1.406       .  A
C631        C640   1.402       .  A
O632        H648   0.992       .  S
O634        H645   0.992       .  S
C636        C637   1.398       .  A
C636        O641   1.372       .  S
C637        C638   1.405       .  A
C637        H642   1.084       .  S
C638        C639   1.416       .  A
C639        C640   1.406       .  A
O641        H646   0.992       .  S
O643        H647   0.992       .  S
C649        C650   1.400       .  A
C649        C654   1.403       .  A
C649        H659   1.084       .  S
C650        C655   1.481       .  S
C650        C651   1.406       .  A
C651        C652   1.401       .  A
C651        O656   1.372       .  S
C652        C653   1.407       .  A
C652        H657   1.083       .  S
C653        C654   1.417       .  A
C654        O658   1.372       .  S
C655        C660   1.408       .  A
C655        C664   1.402       .  A
O656        H672   0.992       .  S
O658        H669   0.992       .  S
C660        C661   1.403       .  A
C660        O665   1.371       .  S
C661        C662   1.403       .  A
C661        H666   1.083   1_556  S
C662        C663   1.410       .  A
C663        C664   1.401       .  A
C663        O667   1.371       .  S
C664        H668   1.084       .  S
O665        H670   0.992       .  S
O667        H671   0.992       .  S
C673        C674   1.405       .  A
C673        C678   1.401       .  A
C673        H683   1.084       .  S
C674        C679   1.483       .  S
C674        C675   1.408       .  A
C675        C676   1.398       .  A
C675        O680   1.372       .  S
C676        C677   1.405       .  A
C676        H681   1.084       .  S
C677        C678   1.411       .  A
C678        O682   1.372       .  S
C679        C684   1.407       .  A
C679        C688   1.407       .  A
O680        H696   0.992       .  S
O682        H693   0.992       .  S
C684        C685   1.395       .  A
C684        O689   1.372       .  S
C685        C686   1.402       .  A
C685        H690   1.084   1_556  S
C686        C687   1.408       .  A
C687        C688   1.404       .  A
C688        H692   1.083       .  S
O689        H694   0.992       .  S
O691        H695   0.991       .  S
C697        C698   1.402       .  A
C697        C702   1.401       .  A
C697        H707   1.084       .  S
C698        C703   1.478       .  S
C699        C700   1.405       .  A
C699        O704   1.371       .  S
C700        H705   1.084       .  S
C701        C702   1.408       .  A
C702        O706   1.373   1_554  S
C703        C708   1.404       .  A
O704        H720   0.992       .  S
O706        H717   0.992       .  S
C708        C709   1.404       .  A
C708        O713   1.371       .  S
C709        C710   1.410       .  A
C709        H714   1.083       .  S
C711        C712   1.397       .  A
C711        O715   1.372       .  S
C712        H716   1.084       .  S
O713        H718   0.992       .  S
O715        H719   0.992       .  S
