geometry optimzed in LAMMPS
_audit_creation_date              2020-12-01 
_audit_creation_method            'lammps2cif' 
_symmetry_space_group_name_H-M    'P1' 
_symmetry_Int_Tables_number       1 
_symmetry_cell_setting            triclinic 
loop_ 
_symmetry_equiv_pos_as_xyz 
  x,y,z 
_cell_length_a                    41.85486831 
_cell_length_b                    41.869841750775414 
_cell_length_c                    71.62120459489803 
_cell_angle_alpha                 89.60840763100647 
_cell_angle_beta                  90.40224679892192 
_cell_angle_gamma                 119.45886526829925 
loop_ 
_atom_site_label 
_atom_site_type_symbol 
_atom_site_fract_x 
_atom_site_fract_y 
_atom_site_fract_z 
_atom_site_charge 
C1          C  0.33263504  0.16517880  0.56768023     0.46100
H2          H  0.33172510  0.16537648  0.58316069    -0.02900
C3          C  0.33415725  0.16492948  0.53135339     0.46200
H4          H  0.33496174  0.16498930  0.51586337    -0.02900
C5          C  0.37130037  0.17929927  0.55984655    -0.16600
C6          C  0.30938734  0.12685328  0.55930857    -0.16400
C7          C  0.31838448  0.18914484  0.55877973    -0.16700
C8          C  0.37261650  0.17908739  0.54060805    -0.16700
C9          C  0.30935124  0.12625082  0.54006873    -0.16300
C10         C  0.31906087  0.18936791  0.53951792    -0.16600
C11         C  0.16398772  0.33101239  0.45569755     0.46100
H12         H  0.16305359  0.32956451  0.44019926    -0.02900
C13         C  0.16696386  0.33390865  0.49202396     0.46200
H14         H  0.16835477  0.33576420  0.50746750    -0.02900
C15         C  0.12655540  0.30838930  0.46486513    -0.16600
C16         C  0.18769901  0.31627415  0.46413665    -0.16400
C17         C  0.17935251  0.36992681  0.46324614    -0.16700
C18         C  0.12749101  0.30920843  0.48408181    -0.16700
C19         C  0.19022383  0.31788433  0.48334386    -0.16300
C20         C  0.18089880  0.37191899  0.48244268    -0.16600
Zn21       Zn  0.21530168  0.36107363  0.66929439     1.49700
Zn22       Zn  0.16818199  0.33377355  0.70670168     1.49400
Zn23       Zn  0.13628619  0.35664865  0.67254742     1.49100
Zn24       Zn  0.14331035  0.28251143  0.67088310     1.49500
O25         O  0.16567514  0.33351065  0.67963397    -1.83500
O26         O  0.25346621  0.37605464  0.68992811    -0.74100
O27         O  0.13982730  0.35480482  0.71889699    -0.73900
O28         O  0.16680330  0.40270100  0.65730441    -0.73400
O29         O  0.21964728  0.36065720  0.71573854    -0.74100
O30         O  0.22142431  0.40612404  0.65565332    -0.73700
O31         O  0.11554329  0.36997590  0.69522920    -0.74300
O32         O  0.09871701  0.27117668  0.65527033    -0.73700
O33         O  0.14868383  0.28354633  0.71664960    -0.74500
O34         O  0.09482063  0.32234460  0.65581213    -0.73800
O35         O  0.13057891  0.24605665  0.69244397    -0.74300
O36         O  0.17719843  0.27532448  0.65351598    -0.74200
O37         O  0.22536827  0.33100657  0.65055342    -0.74000
C38         C  0.25050131  0.37443423  0.70765235     0.77800
C39         C  0.11980918  0.36755422  0.71275612     0.78300
C40         C  0.19998933  0.41875452  0.65173317     0.77200
C41         C  0.08374132  0.28986706  0.64995858     0.77600
C42         C  0.13544681  0.25154655  0.70999705     0.78700
C43         C  0.20801572  0.29720349  0.64615033     0.77800
C44         C  0.00459039  0.00376422  0.79130929     0.46100
H45         H  0.00949320  0.00441435  0.77608196    -0.02900
C46         C  0.99488907  0.00227811  0.82714610     0.46200
H47         H  0.99202833  0.00316251  0.84242403    -0.02900
C48         C  0.46396138  0.48509520  0.79669284    -0.16600
C49         C  0.01979015  0.48227955  0.80173164    -0.16400
C50         C  0.02244328  0.04184339  0.80019869    -0.16700
C51         C  0.45809208  0.48443156  0.81589336    -0.16700
C52         C  0.01442746  0.48067547  0.82074073    -0.16300
C53         C  0.01779923  0.04146879  0.81910549    -0.16600
C54         C  0.16010621  0.33689041  0.86614593     0.46100
H55         H  0.15462852  0.33815031  0.85110571    -0.02900
C56         C  0.17086379  0.33245846  0.90163908     0.46200
H57         H  0.17727992  0.33048536  0.91634879    -0.02900
C58         C  0.14717159  0.35879736  0.87885804    -0.16600
C59         C  0.13944669  0.29689233  0.87379542    -0.16400
C60         C  0.20132584  0.35141803  0.87138338    -0.16700
C61         C  0.15330885  0.35634644  0.89782265    -0.16700
C62         C  0.14498590  0.29536081  0.89265843    -0.16300
C63         C  0.20611126  0.34944937  0.89030822    -0.16600
C64         C  0.32902789  0.17001232  0.12515680     0.46100
H65         H  0.32686442  0.16976727  0.10968149    -0.02900
C66         C  0.33425224  0.16977620  0.16142434     0.46200
H67         H  0.33678050  0.16972286  0.17685683    -0.02900
C68         C  0.29195466  0.14804932  0.13485832    -0.16600
C69         C  0.35236650  0.15349998  0.13217770    -0.16400
C70         C  0.34619616  0.20837839  0.13357379    -0.16700
C71         C  0.29416619  0.14717748  0.15404240    -0.16700
C72         C  0.35549749  0.15315031  0.15131408    -0.16300
C73         C  0.34888847  0.20872553  0.15275022    -0.16600
C74         C  0.50133543  0.50058440  0.19884716     0.46100
H75         H  0.50072341  0.49925498  0.18337082    -0.02900
C76         C  0.50378050  0.50384607  0.23523085     0.46200
H77         H  0.50484504  0.50566295  0.25071663    -0.02900
C78         C  0.48487322  0.02364666  0.20703465    -0.16600
C79         C  0.47955743  0.46255157  0.20861499    -0.16400
C80         C  0.04072933  0.01775101  0.20721826    -0.16700
C81         C  0.48590465  0.02438801  0.22623360    -0.16700
C82         C  0.48231740  0.46467298  0.22780181    -0.16300
C83         C  0.04153960  0.01972622  0.22637788    -0.16600
Zn84       Zn  0.33776690  0.16744002  0.37246892     1.49700
Zn85       Zn  0.38592384  0.19095594  0.33606054     1.49400
Zn86       Zn  0.30825333  0.11739646  0.33656321     1.49100
Zn87       Zn  0.31131949  0.19527316  0.33793063     1.49500
O88         O  0.33581003  0.16783807  0.34555549    -1.83500
O89         O  0.38829279  0.18486400  0.38194313    -0.74100
O90         O  0.39019990  0.15851360  0.31689237    -0.73900
O91         O  0.28572760  0.08087116  0.35771742    -0.73400
O92         O  0.42283465  0.19911854  0.35668214    -0.74100
O93         O  0.30829512  0.11715823  0.38229057    -0.73700
O94         O  0.34000806  0.10439545  0.32099849    -0.74300
O95         O  0.27061746  0.16635791  0.31955620    -0.73700
O96         O  0.39901348  0.23889588  0.32327161    -0.74500
O97         O  0.26848028  0.11230264  0.31907389    -0.73800
O98         O  0.34712575  0.24127591  0.32441209    -0.74300
O99         O  0.29027624  0.20840596  0.36017978    -0.74200
O100        O  0.31597380  0.19539917  0.38408959    -0.74000
C101        C  0.41928351  0.19555123  0.37434083     0.77800
C102        C  0.37070809  0.12457977  0.31311497     0.78300
C103        C  0.28870768  0.08560809  0.37533364     0.77200
C104        C  0.25733738  0.13391456  0.31325164     0.77600
C105        C  0.38045849  0.25474534  0.31937359     0.78700
C106        C  0.29600006  0.20799276  0.37767072     0.77800
Zn107      Zn  0.04913159  0.02950682  0.00598635     1.49700
Zn108      Zn  0.49562826  0.50050386  0.04003776     1.49400
Zn109      Zn  0.46962480  0.02509602  0.00343050     1.49100
Zn110      Zn  0.47566849  0.45124787  0.00369662     1.49500
O111        O  0.49734225  0.50165371  0.01305744    -1.84700
O112        O  0.08346272  0.04675158  0.02829086    -0.74100
O113        O  0.46925520  0.02534415  0.04943123    -0.73900
O114        O  0.00306766  0.06766906  0.98652977    -0.73400
O115        O  0.04538387  0.02384714  0.05209411    -0.74100
O116        O  0.05810654  0.07208621  0.98952567    -0.73700
O117        O  0.44993944  0.04329683  0.02476134    -0.74300
O118        O  0.43476703  0.44067988  0.98547270    -0.73700
O119        O  0.46830691  0.44966095  0.04948843    -0.74500
O120        O  0.42690912  0.48942470  0.98710032    -0.73800
O121        O  0.45498635  0.41372995  0.02467772    -0.74300
O122        O  0.01307976  0.44380049  0.98990333    -0.74200
O123        O  0.06329249  0.49832486  0.99087664    -0.74000
C124        C  0.07787672  0.04149766  0.04576111     0.77800
C125        C  0.45260816  0.04101466  0.04245599     0.78300
C126        C  0.03702669  0.08274811  0.98232475     0.77200
C127        C  0.41778546  0.45769071  0.98068320     0.77600
C128        C  0.45385224  0.41805032  0.04220262     0.78700
C129        C  0.04658071  0.46500314  0.98574323     0.77800
C130        C  0.07577015  0.03826615  0.23778338    -0.11300
C131        C  0.08239062  0.02075939  0.25304185     0.04200
C132        C  0.11382886  0.03990068  0.26391726    -0.11900
C133        C  0.13933079  0.07633876  0.25987037     0.19000
C134        C  0.13377173  0.09371771  0.24434498    -0.08900
C135        C  0.10201139  0.07474946  0.23351930    -0.01900
H136        H  0.11852271  0.02623762  0.27566321     0.05500
C137        C  0.17153951  0.09498005  0.27215828     0.21000
H138        H  0.09747087  0.08877918  0.22192142     0.10700
C139        C  0.19936199  0.08579056  0.27079128    -0.15200
C140        C  0.22785465  0.09867079  0.28385774     0.03700
C141        C  0.22861629  0.12111904  0.29870001    -0.10600
C142        C  0.20129860  0.13129490  0.29964634    -0.00600
C143        C  0.17262155  0.11805108  0.28661429    -0.05700
H144        H  0.19845767  0.06788785  0.25969620     0.06700
H145        H  0.20153427  0.14851968  0.31092431     0.10100
Br146      Br  0.16890050  0.14289826  0.23736074    -0.05400
Br147      Br  0.05151716  0.47048994  0.25951709    -0.02400
Br148      Br  0.26539068  0.08555570  0.28019764     0.00500
Br149      Br  0.13427782  0.13010597  0.28972455    -0.03900
C150        C  0.39678083  0.28808918  0.30755638    -0.11300
C151        C  0.43454187  0.31435190  0.30802233     0.04200
C152        C  0.44860727  0.34377449  0.29537062    -0.11900
C153        C  0.42559792  0.34744705  0.28223628     0.19000
C154        C  0.38807415  0.32142080  0.28178861    -0.08900
C155        C  0.37392110  0.29233410  0.29448675    -0.01900
H156        H  0.47755936  0.36386998  0.29576475     0.05500
C157        C  0.44100926  0.37793657  0.26868786     0.21000
H158        H  0.34503341  0.27216095  0.29366599     0.10700
C159        C  0.46195794  0.37681531  0.25382148    -0.15200
C160        C  0.47556976  0.40438624  0.24020131     0.03700
C161        C  0.46706901  0.43316775  0.24107089    -0.10600
C162        C  0.44673189  0.43446823  0.25628004    -0.00600
C163        C  0.43402588  0.40740330  0.27009654    -0.05700
H164        H  0.46827335  0.35467412  0.25301043     0.06700
H165        H  0.44090652  0.45688628  0.25748977     0.10100
Br166      Br  0.35555811  0.32347511  0.26336509    -0.05400
Br167      Br  0.46786894  0.31243181  0.32597377    -0.02400
Br168      Br  0.01001514  0.40377719  0.22284907     0.00500
Br169      Br  0.40823475  0.41233984  0.29093292    -0.03900
C170        C  0.38413444  0.10825402  0.29928581    -0.11300
C171        C  0.39745429  0.12505264  0.28178163     0.04200
C172        C  0.41161191  0.10969449  0.26932449    -0.11900
C173        C  0.41271280  0.07774908  0.27406107     0.19000
C174        C  0.39895143  0.06063324  0.29139557    -0.08900
C175        C  0.38433864  0.07569278  0.30378275    -0.01900
H176        H  0.42217563  0.12289924  0.25596977     0.05500
C177        C  0.43080115  0.06428697  0.26131063     0.21000
H178        H  0.37426343  0.06265214  0.31721713     0.10700
C179        C  0.46917012  0.08204719  0.26117540    -0.15200
C180        C  0.48761069  0.06981532  0.24963948     0.03700
C181        C  0.46752051  0.03951336  0.23788818    -0.10600
C182        C  0.42906492  0.02221888  0.23771806    -0.00600
C183        C  0.41060274  0.03438408  0.24936630    -0.05700
H184        H  0.48479879  0.10541436  0.27017963     0.06700
H185        H  0.41342266  0.49894432  0.22867620     0.10100
Br186      Br  0.40147260  0.01792635  0.29907283    -0.05400
Br187      Br  0.39568302  0.16809127  0.27389952    -0.02400
Br188      Br  0.04008223  0.09662066  0.24991094     0.00500
Br189      Br  0.35802513  0.50959408  0.24856398    -0.03900
C190        C  0.43603268  0.38616200  0.05472985    -0.11300
C191        C  0.41323907  0.38541381  0.06933858     0.04200
C192        C  0.40035689  0.35718547  0.08252092    -0.11900
C193        C  0.40978445  0.32947367  0.08142776     0.19000
C194        C  0.43126230  0.32928598  0.06642102    -0.08900
C195        C  0.44425805  0.35760672  0.05318106    -0.01900
H196        H  0.38278976  0.35675455  0.09367790     0.05500
C197        C  0.39422723  0.29957039  0.09530034     0.21000
H198        H  0.46161449  0.35785648  0.04196488     0.10700
C199        C  0.35676611  0.27445411  0.09427458    -0.15200
C200        C  0.34042777  0.24532917  0.10684883     0.03700
C201        C  0.36148963  0.24154471  0.12132311    -0.10600
C202        C  0.39891537  0.26789144  0.12281486    -0.00600
C203        C  0.41550021  0.29634491  0.10970631    -0.05700
H204        H  0.34021797  0.27720414  0.08334727     0.06700
H205        H  0.41577917  0.26506243  0.13351657     0.10100
Br206      Br  0.44297726  0.29074159  0.06331883    -0.05400
Br207      Br  0.39751955  0.42133491  0.07149867    -0.02400
Br208      Br  0.28907810  0.21272695  0.10337344     0.00500
Br209      Br  0.46732592  0.32918068  0.11149483    -0.03900
C210        C  0.10925213  0.05496045  0.05912092    -0.11300
C211        C  0.14562433  0.08146851  0.05428516     0.04200
C212        C  0.17386857  0.09221482  0.06747288    -0.11900
C213        C  0.16680146  0.07758721  0.08558414     0.19000
C214        C  0.13078027  0.05168392  0.09057322    -0.08900
C215        C  0.10252295  0.04041146  0.07739777    -0.01900
H216        H  0.20148528  0.11290842  0.06373149     0.05500
C217        C  0.19696443  0.09218838  0.09940292     0.21000
H218        H  0.07507905  0.02005493  0.08155937     0.10700
C219        C  0.19753875  0.11604234  0.11315861    -0.15200
C220        C  0.22749268  0.13384552  0.12522952     0.03700
C221        C  0.25782251  0.12790212  0.12355626    -0.10600
C222        C  0.25663069  0.10312944  0.11008806    -0.00600
C223        C  0.22646745  0.08517888  0.09812581    -0.05700
H224        H  0.17503450  0.12180984  0.11406661     0.06700
H225        H  0.27942051  0.09787732  0.10880597     0.10100
Br226      Br  0.11892612  0.03088034  0.11519014    -0.05400
Br227      Br  0.15896770  0.10612144  0.03054180    -0.02400
Br228      Br  0.22611286  0.16825373  0.14221702     0.00500
Br229      Br  0.22656297  0.05114918  0.08038684    -0.03900
C230        C  0.36574603  0.13545516  0.11897099    -0.11300
C231        C  0.38881636  0.15468023  0.10384711     0.04200
C232        C  0.39874977  0.13626993  0.09100029    -0.11900
C233        C  0.38633585  0.09876027  0.09291336     0.19000
C234        C  0.36351331  0.07936159  0.10800679    -0.08900
C235        C  0.35313778  0.09768335  0.12081727    -0.01900
H236        H  0.41710484  0.15151018  0.07967290     0.05500
C237        C  0.40096378  0.08172270  0.08008763     0.21000
H238        H  0.33490126  0.08234970  0.13215575     0.10700
C239        C  0.43014655  0.07713724  0.08628597    -0.15200
C240        C  0.44768017  0.06463425  0.07427380     0.03700
C241        C  0.43575536  0.05606860  0.05543385    -0.10600
C242        C  0.40631004  0.06079373  0.04927850    -0.00600
C243        C  0.38899017  0.07357327  0.06144818    -0.05700
H244        H  0.43997300  0.08427201  0.10051992     0.06700
H245        H  0.39644659  0.05418800  0.03503741     0.10100
Br246      Br  0.34565926  0.02791184  0.11144223    -0.05400
Br247      Br  0.40998411  0.20637146  0.10040538    -0.02400
Br248      Br  0.48900958  0.06235266  0.08472049     0.00500
Br249      Br  0.34882359  0.07910835  0.05224850    -0.03900
C250        C  0.37760567  0.13830595  0.16088316    -0.11300
C251        C  0.36196468  0.10853492  0.17356977     0.04200
C252        C  0.38242835  0.09229620  0.18005823    -0.11900
C253        C  0.41858888  0.10490089  0.17413931     0.19000
C254        C  0.43453516  0.13496769  0.16172702    -0.08900
C255        C  0.41426416  0.15152099  0.15539395    -0.01900
H256        H  0.36976093  0.06911951  0.18954150     0.05500
C257        C  0.43861676  0.08569520  0.18084513     0.21000
H258        H  0.42679645  0.17409134  0.14555068     0.10700
C259        C  0.42752824  0.04983358  0.17476886    -0.15200
C260        C  0.44349254  0.02963174  0.18214702     0.03700
C261        C  0.47116767  0.04526644  0.19596823    -0.10600
C262        C  0.48365288  0.08200387  0.20106080    -0.00600
C263        C  0.46721253  0.10177637  0.19404827    -0.05700
H264        H  0.40560731  0.03712345  0.16457472     0.06700
H265        H  0.50543896  0.09501124  0.21127204     0.10100
Br266      Br  0.48299844  0.15276722  0.15203507    -0.05400
Br267      Br  0.31199190  0.08645537  0.18141606    -0.02400
Br268      Br  0.42456686  0.48031741  0.17361021     0.00500
Br269      Br  0.48264543  0.14942793  0.20427553    -0.03900
C270        C  0.26110907  0.12356484  0.16572979    -0.11300
C271        C  0.24917137  0.13769961  0.18030224     0.04200
C272        C  0.21297940  0.11733134  0.18691117    -0.11900
C273        C  0.18864859  0.08260858  0.17952816     0.19000
C274        C  0.20178773  0.06712465  0.16638329    -0.08900
C275        C  0.23780513  0.08720410  0.15995376    -0.01900
H276        H  0.20338187  0.12913903  0.19738825     0.05500
C277        C  0.14942731  0.06347408  0.18508748     0.21000
H278        H  0.24691825  0.07517548  0.14935868     0.10700
C279        C  0.12627150  0.07673683  0.17870798    -0.15200
C280        C  0.08945837  0.06022778  0.18437780     0.03700
C281        C  0.07514217  0.02955046  0.19641249    -0.10600
C282        C  0.09784444  0.01499513  0.20175130    -0.00600
C283        C  0.13483157  0.03222677  0.19665600    -0.05700
H284        H  0.13722589  0.10074661  0.16975713     0.06700
H285        H  0.08748731  0.99184098  0.21127291     0.10100
Br286      Br  0.17072374  0.01997397  0.15549342    -0.05400
Br287      Br  0.27940432  0.18572104  0.19039313    -0.02400
Br288      Br  0.06133008  0.08301804  0.17695728     0.00500
Br289      Br  0.16523776  0.01444235  0.20743472    -0.03900
C290        C  0.36439197  0.24348300  0.16374392    -0.11300
C291        C  0.35045647  0.26797818  0.16169090     0.04200
C292        C  0.36962189  0.30335740  0.16898715    -0.11900
C293        C  0.40233049  0.31512641  0.17896936     0.19000
C294        C  0.41456324  0.28966642  0.18265821    -0.08900
C295        C  0.39585646  0.25429444  0.17484023    -0.01900
H296        H  0.35902592  0.32204536  0.16668992     0.05500
C297        C  0.42209514  0.35378848  0.18562646     0.21000
H298        H  0.40650492  0.23561888  0.17697254     0.10700
C299        C  0.40382770  0.36597994  0.19751760    -0.15200
C300        C  0.42076253  0.40234708  0.20365693     0.03700
C301        C  0.45737983  0.42712440  0.19854475    -0.10600
C302        C  0.47431598  0.41601542  0.18521828    -0.00600
C303        C  0.45701921  0.37965996  0.17878573    -0.05700
H304        H  0.37606076  0.34711387  0.20194676     0.06700
H305        H  0.50193080  0.43502879  0.18064716     0.10100
Br306      Br  0.45577103  0.30154094  0.19870634    -0.05400
Br307      Br  0.30482362  0.25485910  0.14956408    -0.02400
Br308      Br  0.39166397  0.41724230  0.21791888     0.00500
Br309      Br  0.48195807  0.36693660  0.16045940    -0.03900
C310        C  0.24195130  0.36478270  0.90036256    -0.11300
C311        C  0.26504563  0.40291417  0.90244267     0.04200
C312        C  0.29510209  0.41635921  0.91461588    -0.11900
C313        C  0.30282811  0.39243514  0.92493884     0.19000
C314        C  0.28055797  0.35430351  0.92246971    -0.08900
C315        C  0.25028036  0.34080058  0.91033988    -0.01900
H316        H  0.31187440  0.44571334  0.91653621     0.05500
C317        C  0.33216990  0.40800626  0.93931598     0.21000
H318        H  0.23243655  0.31143813  0.90913061     0.10700
C319        C  0.32642447  0.42330821  0.95547288    -0.15200
C320        C  0.35376868  0.43941083  0.96918854     0.03700
C321        C  0.38768174  0.44044726  0.96682582    -0.10600
C322        C  0.39323270  0.42479312  0.95072124    -0.00600
C323        C  0.36600820  0.40903737  0.93693124    -0.05700
H324        H  0.30041801  0.42256148  0.95744426     0.06700
H325        H  0.41924626  0.42561611  0.94863944     0.10100
Br326      Br  0.28890688  0.31969386  0.93629110    -0.05400
Br327      Br  0.25523575  0.43809954  0.89052918    -0.02400
Br328      Br  0.34255139  0.45751306  0.99132023     0.00500
Br329      Br  0.37681825  0.39082519  0.91472115    -0.03900
C330        C  0.05253680  0.11265106  0.96832905    -0.11300
C331        C  0.03366973  0.11094756  0.95161063     0.04200
C332        C  0.05015047  0.13889740  0.93828477    -0.11900
C333        C  0.08526390  0.16887055  0.94126920     0.19000
C334        C  0.10405528  0.17078406  0.95799100    -0.08900
C335        C  0.08788871  0.14252002  0.97119918    -0.01900
H336        H  0.03537390  0.13740944  0.92553842     0.05500
C337        C  0.09989489  0.19958002  0.92771882     0.21000
H338        H  0.10269832  0.14426867  0.98396887     0.10700
C339        C  0.08156394  0.21979480  0.92573611    -0.15200
C340        C  0.09500374  0.25025353  0.91392584     0.03700
C341        C  0.12796660  0.26136208  0.90404672    -0.10600
C342        C  0.14550645  0.24026025  0.90538382    -0.00600
C343        C  0.13140508  0.20916300  0.91691595    -0.05700
H344        H  0.05677361  0.21201726  0.93361105     0.06700
H345        H  0.17023132  0.24805413  0.89744730     0.10100
Br346      Br  0.15065311  0.21250542  0.96398894    -0.05400
Br347      Br  0.98624204  0.07037029  0.94566240    -0.02400
Br348      Br  0.06640285  0.27482452  0.91175007     0.00500
Br349      Br  0.15520794  0.18001024  0.91695277    -0.03900
C350        C  0.14429325  0.37502679  0.91329408    -0.11300
C351        C  0.13073792  0.35943984  0.93134113     0.04200
C352        C  0.11623282  0.37561320  0.94304583    -0.11900
C353        C  0.11810945  0.40878720  0.93833838     0.19000
C354        C  0.13714364  0.42751008  0.92229161    -0.08900
C355        C  0.14978841  0.41056708  0.90995633    -0.01900
H356        H  0.10388803  0.36255067  0.95620277     0.05500
C357        C  0.10002214  0.42323751  0.95046234     0.21000
H358        H  0.16452114  0.42572721  0.89782043     0.10700
C359        C  0.12106428  0.45169285  0.96287470    -0.15200
C360        C  0.10442508  0.46558927  0.97470151     0.03700
C361        C  0.06585113  0.45070232  0.97416375    -0.10600
C362        C  0.04494046  0.42166342  0.96186456    -0.00600
C363        C  0.06169859  0.40795831  0.95007693    -0.05700
H364        H  0.15055536  0.46297204  0.96341258     0.06700
H365        H  0.01540958  0.40991871  0.96113983     0.10100
Br366      Br  0.14655767  0.47619596  0.91682166    -0.05400
Br367      Br  0.13306939  0.31931738  0.94323164    -0.02400
Br368      Br  0.13601883  0.00344738  0.99173844     0.00500
Br369      Br  0.03129059  0.36889149  0.93334853    -0.03900
C370        C  0.02488516  0.45897717  0.83356716    -0.11300
C371        C  0.01212113  0.42119672  0.83085859     0.04200
C372        C  0.02937643  0.40397401  0.84000969    -0.11900
C373        C  0.05802600  0.42315097  0.85284214     0.19000
C374        C  0.06732166  0.45963593  0.85726875    -0.08900
C375        C  0.05093185  0.47718173  0.84761409    -0.01900
H376        H  0.02092541  0.37570482  0.83671937     0.05500
C377        C  0.08009796  0.40614871  0.85991093     0.21000
H378        H  0.05988691  0.50572591  0.85047405     0.10700
C379        C  0.11802791  0.42454851  0.85671251    -0.15200
C380        C  0.14026842  0.41018935  0.86285023     0.03700
C381        C  0.12461202  0.37525925  0.87150263    -0.10600
C382        C  0.08648186  0.35656232  0.87456435    -0.00600
C383        C  0.06438629  0.37181870  0.86913550    -0.05700
H384        H  0.13073194  0.45101081  0.84977363     0.06700
H385        H  0.07392433  0.33029881  0.88165633     0.10100
Br386      Br  0.10233758  0.48707610  0.87628826    -0.05400
Br387      Br  0.96988742  0.39138091  0.81571573    -0.02400
Br388      Br  0.19187959  0.44292127  0.86156588     0.00500
Br389      Br  0.01349083  0.34585343  0.87581109    -0.03900
C390        C  0.03217820  0.07590314  0.83034731    -0.11300
C391        C  0.06984753  0.09783232  0.83433509     0.04200
C392        C  0.08357336  0.13352813  0.84123453    -0.11900
C393        C  0.06078983  0.14920094  0.84334811     0.19000
C394        C  0.02290679  0.12702325  0.83928595    -0.08900
C395        C  0.00879891  0.09012750  0.83414341    -0.01900
H396        H  0.11260076  0.14961462  0.84436429     0.05500
C397        C  0.07775091  0.18871990  0.84914282     0.21000
H398        H  0.97975942  0.07359109  0.83115369     0.10700
C399        C  0.11045964  0.21538520  0.84059197    -0.15200
C400        C  0.13020218  0.25153511  0.84746717     0.03700
C401        C  0.11618829  0.26264000  0.86244645    -0.10600
C402        C  0.08122521  0.23711888  0.86910325    -0.00600
C403        C  0.06385699  0.20013859  0.86399108    -0.05700
H404        H  0.12188080  0.20752220  0.82914789     0.06700
H405        H  0.06859429  0.24504909  0.87960986     0.10100
Br406      Br  0.99014775  0.14674508  0.83709237    -0.05400
Br407      Br  0.10394264  0.08070853  0.83023152    -0.02400
Br408      Br  0.17721187  0.28300324  0.83671800     0.00500
Br409      Br  0.02620213  0.16630931  0.88052199    -0.03900
C410        C  0.23347461  0.36454171  0.85820114    -0.11300
C411        C  0.24235563  0.39227241  0.84475193     0.04200
C412        C  0.27895455  0.41412760  0.83914221    -0.11900
C413        C  0.30587492  0.40399859  0.84307032     0.19000
C414        C  0.29421388  0.37069073  0.85309061    -0.08900
C415        C  0.25920826  0.35258782  0.86116756    -0.01900
H416        H  0.28575487  0.43875640  0.83133484     0.05500
C417        C  0.34517474  0.42789964  0.83674372     0.21000
H418        H  0.25197697  0.32885874  0.86995506     0.10700
C419        C  0.37423741  0.43195295  0.84835313    -0.15200
C420        C  0.41069108  0.44885616  0.84203041     0.03700
C421        C  0.42028572  0.46812303  0.82474677    -0.10600
C422        C  0.39185991  0.46973690  0.81484446    -0.00600
C423        C  0.35482371  0.44717525  0.81951529    -0.05700
H424        H  0.36842565  0.41993308  0.86218101     0.06700
H425        H  0.39800263  0.48595307  0.80221138     0.10100
Br426      Br  0.32313991  0.34668577  0.85561126    -0.05400
Br427      Br  0.20594854  0.39533697  0.82978586    -0.02400
Br428      Br  0.44328661  0.43955422  0.85715915     0.00500
Br429      Br  0.32009450  0.44000334  0.80005112    -0.03900
C430        C  0.43506028  0.46550359  0.78207209    -0.11300
C431        C  0.43437437  0.48224999  0.76491413     0.04200
C432        C  0.40511304  0.46403398  0.75257031    -0.11900
C433        C  0.37529595  0.42985795  0.75702909     0.19000
C434        C  0.37699353  0.41167495  0.77332887    -0.08900
C435        C  0.40728642  0.42911023  0.78535330    -0.01900
H436        H  0.40470595  0.47753783  0.73967489     0.05500
C437        C  0.34258341  0.41506936  0.74468859     0.21000
H438        H  0.40804083  0.41495891  0.79791852     0.10700
C439        C  0.33018183  0.38117122  0.73579213    -0.15200
C440        C  0.30029752  0.36762262  0.72346219     0.03700
C441        C  0.28332575  0.38870213  0.71941319    -0.10600
C442        C  0.29544802  0.42234691  0.72828165    -0.00600
C443        C  0.32469690  0.43561317  0.74088767    -0.05700
H444        H  0.34369151  0.36519265  0.73847601     0.06700
H445        H  0.28166493  0.43809131  0.72560973     0.10100
Br446      Br  0.33747506  0.36475700  0.78077464    -0.05400
Br447      Br  0.47010395  0.03055991  0.75717385    -0.02400
Br448      Br  0.28221390  0.31950262  0.71324203     0.00500
Br449      Br  0.33784498  0.48131740  0.75295787    -0.03900
C450        C  0.04368824  0.07526384  0.78874060    -0.11300
C451        C  0.03048922  0.09968937  0.78440588     0.04200
C452        C  0.04981494  0.12853189  0.77192212    -0.11900
C453        C  0.08144809  0.13285741  0.76313041     0.19000
C454        C  0.09474900  0.10870792  0.76739976    -0.08900
C455        C  0.07590326  0.08020503  0.78019776    -0.01900
H456        H  0.03913067  0.14669532  0.76832646     0.05500
C457        C  0.09868987  0.16170201  0.74882801     0.21000
H458        H  0.08579190  0.06111967  0.78308766     0.10700
C459        C  0.12606259  0.19657988  0.75419738    -0.15200
C460        C  0.13972744  0.22585906  0.74156582     0.03700
C461        C  0.12514059  0.22048107  0.72315336    -0.10600
C462        C  0.09896953  0.18485048  0.71762495    -0.00600
C463        C  0.08576094  0.15559851  0.73031208    -0.05700
H464        H  0.13636987  0.20116379  0.76841153     0.06700
H465        H  0.08779460  0.17987066  0.70359139     0.10100
Br466      Br  0.13726536  0.11260741  0.75534047    -0.05400
Br467      Br  0.48362011  0.09220521  0.79237452    -0.02400
Br468      Br  0.17884831  0.27181904  0.75061333     0.00500
Br469      Br  0.04920625  0.10788848  0.72204252    -0.03900
C470        C  0.03404403  0.46178794  0.79077857    -0.11300
C471        C  0.07048012  0.46850441  0.79215528     0.04200
C472        C  0.08279124  0.45059482  0.78008547    -0.11900
C473        C  0.05953499  0.42653450  0.76632434     0.19000
C474        C  0.02316283  0.41959483  0.76503835    -0.08900
C475        C  0.01087551  0.43735947  0.77705532    -0.01900
H476        H  0.11105857  0.45657705  0.78093024     0.05500
C477        C  0.07428782  0.41102141  0.75252524     0.21000
H478        H  0.48295574  0.43220168  0.77559503     0.10700
C479        C  0.07705367  0.37990758  0.75713031    -0.15200
C480        C  0.09075737  0.36462594  0.74424261     0.03700
C481        C  0.10227643  0.38080183  0.72634093    -0.10600
C482        C  0.09870643  0.41157180  0.72172169    -0.00600
C483        C  0.08508738  0.42677981  0.73465747    -0.05700
H484        H  0.06823869  0.36730446  0.77075787     0.06700
H485        H  0.10750412  0.42451993  0.70817007     0.10100
Br486      Br  0.98957619  0.38670709  0.74676752    -0.05400
Br487      Br  0.10572767  0.00453168  0.80862904    -0.02400
Br488      Br  0.09110130  0.32060020  0.75169619     0.00500
Br489      Br  0.08259528  0.46977921  0.72756514    -0.03900
C490        C  0.20174564  0.29736522  0.45201644    -0.11300
C491        C  0.22939618  0.31690947  0.43879074     0.04200
C492        C  0.24113440  0.29827293  0.42713051    -0.11900
C493        C  0.22552918  0.26012372  0.42822140     0.19000
C494        C  0.19769402  0.24030543  0.44133392    -0.08900
C495        C  0.18611486  0.25906425  0.45319882    -0.01900
H496        H  0.26295201  0.31369497  0.41724890     0.05500
C497        C  0.24095153  0.24270111  0.41619172     0.21000
H498        H  0.16470849  0.24377126  0.46327331     0.10700
C499        C  0.27609765  0.24843879  0.42040743    -0.15200
C500        C  0.29474624  0.23791883  0.40797931     0.03700
C501        C  0.27794778  0.22092160  0.39093700    -0.10600
C502        C  0.24247230  0.21484262  0.38684705    -0.00600
C503        C  0.22399246  0.22567352  0.39930064    -0.05700
H504        H  0.28966587  0.26251874  0.43316035     0.06700
H505        H  0.22904596  0.20162495  0.37391483     0.10100
Br506      Br  0.17526305  0.18803922  0.44366788    -0.05400
Br507      Br  0.25404804  0.36921872  0.43684432    -0.02400
Br508      Br  0.34425556  0.25076735  0.41445949     0.00500
Br509      Br  0.17651970  0.21833766  0.39231577    -0.03900
C510        C  0.45103985  0.20383842  0.38674260    -0.11300
C511        C  0.48809256  0.22537168  0.38116258     0.04200
C512        C  0.01609730  0.23678147  0.39454651    -0.11900
C513        C  0.00806104  0.22632363  0.41331867     0.19000
C514        C  0.47173426  0.20213044  0.41854809    -0.08900
C515        C  0.44366772  0.19121048  0.40536572    -0.01900
H516        H  0.04420511  0.25516724  0.39043419     0.05500
C517        C  0.03700220  0.24450978  0.42754346     0.21000
H518        H  0.41573924  0.17342530  0.40992482     0.10700
C519        C  0.03455768  0.26927840  0.43973413    -0.15200
C520        C  0.06274480  0.28983108  0.45236509     0.03700
C521        C  0.09398802  0.28531816  0.45307878    -0.10600
C522        C  0.09616887  0.26028613  0.44089473    -0.00600
C523        C  0.06797129  0.23982299  0.42826177    -0.05700
H524        H  0.01116019  0.27369930  0.43887230     0.06700
H525        H  0.12010536  0.25677774  0.44112602     0.10100
Br526      Br  0.45920544  0.18395348  0.44365554    -0.05400
Br527      Br  0.50288651  0.24191898  0.35599457    -0.02400
Br528      Br  0.05870940  0.32677551  0.46610476     0.00500
Br529      Br  0.07287441  0.20578585  0.41239067    -0.03900
C530        C  0.27011589  0.05395763  0.38811163    -0.11300
C531        C  0.26102867  0.05792191  0.40666422     0.04200
C532        C  0.24671072  0.02784559  0.41876458    -0.11900
C533        C  0.24082962  0.49368491  0.41272525     0.19000
C534        C  0.24841135  0.48922137  0.39413970    -0.08900
C535        C  0.26298989  0.01925498  0.38199659    -0.01900
H536        H  0.23990437  0.03101223  0.43295435     0.05500
C537        C  0.22553606  0.46266845  0.42587232     0.21000
H538        H  0.26968069  0.01561613  0.36787100     0.10700
C539        C  0.18931707  0.43491923  0.42341304    -0.15200
C540        C  0.17382026  0.40462530  0.43530730     0.03700
C541        C  0.19443756  0.40223703  0.45044740    -0.10600
C542        C  0.23085230  0.43049931  0.45291965    -0.00600
C543        C  0.24651661  0.46041832  0.44068160    -0.05700
H544        H  0.17310258  0.43675925  0.41202172     0.06700
H545        H  0.24760132  0.42868591  0.46401525     0.10100
Br546      Br  0.24055862  0.44293549  0.38497431    -0.05400
Br547      Br  0.26561718  0.10277022  0.41634157    -0.02400
Br548      Br  0.12409678  0.36878881  0.43005253     0.00500
Br549      Br  0.29716684  0.49642267  0.44389351    -0.03900
C550        C  0.30245727  0.20741909  0.57051969    -0.11300
C551        C  0.32201228  0.23059805  0.58563221     0.04200
C552        C  0.30541058  0.24517527  0.59701912    -0.11900
C553        C  0.26957023  0.23786121  0.59358330     0.19000
C554        C  0.25024244  0.21598603  0.57820249    -0.08900
C555        C  0.26644216  0.20047950  0.56700563    -0.01900
H556        H  0.32061920  0.26245067  0.60868894     0.05500
C557        C  0.25274809  0.25249575  0.60667556     0.21000
H558        H  0.25071384  0.18268882  0.55561110     0.10700
C559        C  0.25599009  0.28699886  0.60333963    -0.15200
C560        C  0.24184707  0.30222909  0.61602141     0.03700
C561        C  0.22390123  0.28265851  0.63237147    -0.10600
C562        C  0.22059041  0.24799521  0.63555781    -0.00600
C563        C  0.23521818  0.23312576  0.62301195    -0.05700
H564        H  0.26965328  0.30214892  0.59083861     0.06700
H565        H  0.20714530  0.23266447  0.64805334     0.10100
Br566      Br  0.20173867  0.20664774  0.57214252    -0.05400
Br567      Br  0.37205027  0.24565297  0.59124386    -0.02400
Br568      Br  0.24618636  0.34884176  0.60971266     0.00500
Br569      Br  0.23137707  0.18657970  0.62888138    -0.03900
C570        C  0.40411800  0.19558770  0.57239032    -0.11300
C571        C  0.40638429  0.17709359  0.58853673     0.04200
C572        C  0.43669890  0.19417698  0.60038993    -0.11900
C573        C  0.46462565  0.22990028  0.59687366     0.19000
C574        C  0.46248424  0.24882170  0.58108591    -0.08900
C575        C  0.43259737  0.23154564  0.56887892    -0.01900
H576        H  0.43836528  0.17962721  0.61260422     0.05500
C577        C  0.49562306  0.24666293  0.61003882     0.21000
H578        H  0.43083983  0.24684670  0.55704295     0.10700
C579        C  0.02428120  0.23875215  0.60830471    -0.15200
C580        C  0.05313842  0.25231932  0.62120913     0.03700
C581        C  0.05331476  0.27403914  0.63629149    -0.10600
C582        C  0.02465841  0.28223813  0.63780231    -0.00600
C583        C  0.49579755  0.26849560  0.62488879    -0.05700
H584        H  0.02417619  0.22196991  0.59682658     0.06700
H585        H  0.02447221  0.29902310  0.64919856     0.10100
Br586      Br  0.49892185  0.29867453  0.57625623    -0.05400
Br587      Br  0.37030295  0.12823283  0.59531300    -0.02400
Br588      Br  0.09242005  0.24210223  0.61665086     0.00500
Br589      Br  0.45676528  0.27945691  0.62820530    -0.03900
C590        C  0.28906221  0.09457102  0.57186559    -0.11300
C591        C  0.29484462  0.06401943  0.57198648     0.04200
C592        C  0.27695765  0.03603971  0.58514389    -0.11900
C593        C  0.25382990  0.03803065  0.59856347     0.19000
C594        C  0.24820343  0.06849499  0.59862039    -0.08900
C595        C  0.26578670  0.09639667  0.58536650    -0.01900
H596        H  0.28222523  0.01315107  0.58538731     0.05500
C597        C  0.23862123  0.00944434  0.61323747     0.21000
H598        H  0.26161405  0.11996615  0.58572584     0.10700
C599        C  0.26252795  0.50851529  0.62675456    -0.15200
C600        C  0.25031265  0.48005277  0.63987156     0.03700
C601        C  0.21334981  0.45167981  0.63960514    -0.10600
C602        C  0.18913343  0.45348229  0.62644613    -0.00600
C603        C  0.20157334  0.48182862  0.61320481    -0.05700
H604        H  0.29106730  0.02982175  0.62689338     0.06700
H605        H  0.16076645  0.43184991  0.62588369     0.10100
Br606      Br  0.21854391  0.07421896  0.61713405    -0.05400
Br607      Br  0.33061614  0.06092269  0.55673647    -0.02400
Br608      Br  0.28535319  0.48213690  0.65797652     0.00500
Br609      Br  0.16777304  0.48035350  0.59453085    -0.03900
C610        C  0.30672631  0.21173239  0.52819297    -0.11300
C611        C  0.27745833  0.19582209  0.51520467     0.04200
C612        C  0.26110653  0.21600451  0.50844240    -0.11900
C613        C  0.27381244  0.25234831  0.51403414     0.19000
C614        C  0.30463385  0.26914023  0.52588612    -0.08900
C615        C  0.32087312  0.24899418  0.53274066    -0.01900
H616        H  0.23789156  0.20305615  0.49898901     0.05500
C617        C  0.25430653  0.27206629  0.50752297     0.21000
H618        H  0.34361620  0.26200365  0.54246650     0.10700
C619        C  0.22132402  0.26499053  0.51604487    -0.15200
C620        C  0.20091661  0.28126488  0.50939029     0.03700
C621        C  0.21358777  0.30542104  0.49386521    -0.10600
C622        C  0.24830454  0.31461876  0.48652015    -0.00600
C623        C  0.26782983  0.29732642  0.49269535    -0.05700
H624        H  0.21092046  0.24593162  0.52767173     0.06700
H625        H  0.25962874  0.33417054  0.47517429     0.10100
Br626      Br  0.32415509  0.31892727  0.53389144    -0.05400
Br627      Br  0.25707984  0.14633546  0.50679606    -0.02400
Br628      Br  0.15551733  0.26759515  0.52172800     0.00500
Br629      Br  0.31138261  0.30686081  0.47948115    -0.03900
C630        C  0.28807800  0.09161670  0.52897137    -0.11300
C631        C  0.25036408  0.06718859  0.53216160     0.04200
C632        C  0.23360413  0.03142738  0.52500746    -0.11900
C633        C  0.25314353  0.01935234  0.51394556     0.19000
C634        C  0.28952918  0.04519790  0.50889797    -0.08900
C635        C  0.30665979  0.08082888  0.51644065    -0.01900
H636        H  0.20501219  0.01283992  0.52814394     0.05500
C637        C  0.23399813  0.48055984  0.50698015     0.21000
H638        H  0.33519763  0.09953457  0.51324731     0.10700
C639        C  0.20160993  0.46815059  0.49648672    -0.15200
C640        C  0.18251311  0.43217476  0.48966866     0.03700
C641        C  0.19615113  0.40765674  0.49272922    -0.10600
C642        C  0.22736229  0.41926247  0.50412019    -0.00600
C643        C  0.24593259  0.45509270  0.51143918    -0.05700
H644        H  0.19104184  0.48665561  0.49354860     0.06700
H645        H  0.23787743  0.40068351  0.50696792     0.10100
Br646      Br  0.31678035  0.03367317  0.49142777    -0.05400
Br647      Br  0.21955418  0.08177445  0.54506394    -0.02400
Br648      Br  0.13713310  0.41776633  0.47685756     0.00500
Br649      Br  0.28626087  0.46717572  0.52815887    -0.03900
C650        C  0.09365365  0.28790522  0.49562702    -0.11300
C651        C  0.07142170  0.24951553  0.49376894     0.04200
C652        C  0.03523721  0.23172642  0.50042005    -0.11900
C653        C  0.02046694  0.25124960  0.50943177     0.19000
C654        C  0.04414637  0.28895016  0.51309892    -0.08900
C655        C  0.08035851  0.30681958  0.50629982    -0.01900
H656        H  0.01833959  0.20245594  0.49831511     0.05500
C657        C  0.48122907  0.23108282  0.51581199     0.21000
H658        H  0.09732200  0.33613319  0.50826324     0.10700
C659        C  0.46997180  0.20089385  0.52784580    -0.15200
C660        C  0.43385597  0.18142315  0.53448073     0.03700
C661        C  0.40813863  0.19306902  0.53003703    -0.10600
C662        C  0.41851953  0.22152015  0.51686871    -0.00600
C663        C  0.45433581  0.23982294  0.50943271    -0.05700
H664        H  0.98946809  0.19227854  0.53211175     0.06700
H665        H  0.39899490  0.23012302  0.51265405     0.10100
Br666      Br  0.02865195  0.31753054  0.52724644    -0.05400
Br667      Br  0.08958442  0.21984245  0.48285519    -0.02400
Br668      Br  0.42110081  0.13810224  0.54887427     0.00500
Br669      Br  0.46444904  0.27479861  0.48977120    -0.03900
C670        C  0.33263503  0.66517872  0.56768020     0.46100
H671        H  0.33172509  0.66537639  0.58316066    -0.02900
C672        C  0.33415727  0.66492942  0.53135335     0.46200
H673        H  0.33496172  0.66498921  0.51586333    -0.02900
C674        C  0.37130038  0.67929924  0.55984653    -0.16600
C675        C  0.30938736  0.62685319  0.55930854    -0.16400
C676        C  0.31838444  0.68914474  0.55877969    -0.16700
C677        C  0.37261651  0.67908738  0.54060802    -0.16700
C678        C  0.30935128  0.62625075  0.54006869    -0.16300
C679        C  0.31906085  0.68936782  0.53951788    -0.16600
C680        C  0.16398783  0.83101246  0.45569753     0.46100
H681        H  0.16305371  0.82956452  0.44019925    -0.02900
C682        C  0.16696398  0.83390880  0.49202394     0.46200
H683        H  0.16835487  0.83576440  0.50746748    -0.02900
C684        C  0.12655551  0.80838942  0.46486511    -0.16600
C685        C  0.18769908  0.81627419  0.46413666    -0.16400
C686        C  0.17935268  0.86992692  0.46324610    -0.16700
C687        C  0.12749113  0.80920857  0.48408180    -0.16700
C688        C  0.19022393  0.81788445  0.48334387    -0.16300
C689        C  0.18089894  0.87191912  0.48244264    -0.16600
Zn690      Zn  0.21530169  0.86107351  0.66929441     1.49700
Zn691      Zn  0.16818193  0.83377344  0.70670168     1.49400
Zn692      Zn  0.13628617  0.85664854  0.67254741     1.49100
Zn693      Zn  0.14331037  0.78251132  0.67088311     1.49500
O694        O  0.16567510  0.83351054  0.67963397    -1.83500
O695        O  0.25346618  0.87605448  0.68992814    -0.74100
O696        O  0.13982717  0.85480465  0.71889698    -0.73900
O697        O  0.16680335  0.90270089  0.65730442    -0.73400
O698        O  0.21964716  0.86065709  0.71573854    -0.74100
O699        O  0.22142437  0.90612394  0.65565332    -0.73700
O700        O  0.11554315  0.86997572  0.69522919    -0.74300
O701        O  0.09871701  0.77117656  0.65527033    -0.73700
O702        O  0.14868366  0.78354623  0.71664960    -0.74500
O703        O  0.09482073  0.82234455  0.65581206    -0.73800
O704        O  0.13057892  0.74605653  0.69244397    -0.74300
O705        O  0.17719849  0.77532438  0.65351601    -0.74200
O706        O  0.22536832  0.83100647  0.65055345    -0.74000
C707        C  0.25050122  0.87443406  0.70765239     0.77800
C708        C  0.11980902  0.86755403  0.71275612     0.78300
C709        C  0.19998938  0.91875441  0.65173317     0.77200
C710        C  0.08374138  0.78986698  0.64995854     0.77600
C711        C  0.13544674  0.75154645  0.70999705     0.78700
C712        C  0.20801577  0.79720339  0.64615035     0.77800
C713        C  0.00459039  0.50376425  0.79130931     0.46100
H714        H  0.00949318  0.50441436  0.77608198    -0.02900
C715        C  0.99488902  0.50227813  0.82714612     0.46200
H716        H  0.99202825  0.50316251  0.84242406    -0.02900
C717        C  0.46396128  0.98509509  0.79669285    -0.16600
C718        C  0.01979019  0.98227954  0.80173161    -0.16400
C719        C  0.02244332  0.54184342  0.80019873    -0.16700
C720        C  0.45809206  0.98443144  0.81589338    -0.16700
C721        C  0.01442754  0.98067549  0.82074071    -0.16300
C722        C  0.01779922  0.54146881  0.81910553    -0.16600
C723        C  0.16010623  0.83689043  0.86614597     0.46100
H724        H  0.15462865  0.83815044  0.85110576    -0.02900
C725        C  0.17086374  0.83245838  0.90163913     0.46200
H726        H  0.17727980  0.83048520  0.91634884    -0.02900
C727        C  0.14717168  0.85879743  0.87885810    -0.16600
C728        C  0.13944660  0.79689233  0.87379544    -0.16400
C729        C  0.20132582  0.85141794  0.87138344    -0.16700
C730        C  0.15330886  0.85634644  0.89782271    -0.16700
C731        C  0.14498583  0.79536078  0.89265845    -0.16300
C732        C  0.20611122  0.84944923  0.89030829    -0.16600
C733        C  0.32902781  0.67001220  0.12515680     0.46100
H734        H  0.32686434  0.66976717  0.10968149    -0.02900
C735        C  0.33425215  0.66977612  0.16142434     0.46200
H736        H  0.33678039  0.66972280  0.17685682    -0.02900
C737        C  0.29195459  0.64804917  0.13485831    -0.16600
C738        C  0.35236647  0.65349992  0.13217770    -0.16400
C739        C  0.34619601  0.70837828  0.13357379    -0.16700
C740        C  0.29416611  0.64717733  0.15404239    -0.16700
C741        C  0.35549745  0.65315027  0.15131408    -0.16300
C742        C  0.34888833  0.70872544  0.15275021    -0.16600
C743        C  0.50133544  0.00058436  0.19884712     0.46100
H744        H  0.50072338  0.99925496  0.18337079    -0.02900
C745        C  0.50378053  0.00384603  0.23523081     0.46200
H746        H  0.50484508  0.00566290  0.25071659    -0.02900
C747        C  0.48487317  0.52364666  0.20703468    -0.16600
C748        C  0.47955738  0.96255152  0.20861495    -0.16400
C749        C  0.04072934  0.51775105  0.20721830    -0.16700
C750        C  0.48590463  0.52438804  0.22623364    -0.16700
C751        C  0.48231739  0.96467294  0.22780178    -0.16300
C752        C  0.04153960  0.51972618  0.22637792    -0.16600
Zn753      Zn  0.33776677  0.66743995  0.37246903     1.49700
Zn754      Zn  0.38592381  0.69095586  0.33606057     1.49400
Zn755      Zn  0.30825335  0.61739642  0.33656335     1.49100
Zn756      Zn  0.31131953  0.69527322  0.33793067     1.49500
O757        O  0.33581002  0.66783811  0.34555558    -1.83500
O758        O  0.38829270  0.68486389  0.38194319    -0.74100
O759        O  0.39019974  0.65851342  0.31689242    -0.73900
O760        O  0.28572767  0.58087109  0.35771751    -0.73400
O761        O  0.42283456  0.69911844  0.35668217    -0.74100
O762        O  0.30829499  0.61715819  0.38229066    -0.73700
O763        O  0.34000790  0.60439531  0.32099860    -0.74300
O764        O  0.27061738  0.66635779  0.31955630    -0.73700
O765        O  0.39901349  0.73889583  0.32327160    -0.74500
O766        O  0.26848032  0.61230257  0.31907398    -0.73800
O767        O  0.34712574  0.74127584  0.32441208    -0.74300
O768        O  0.29027633  0.70840607  0.36017984    -0.74200
O769        O  0.31597363  0.69539902  0.38408968    -0.74000
C770        C  0.41928343  0.69555111  0.37434087     0.77800
C771        C  0.37070788  0.62457959  0.31311504     0.78300
C772        C  0.28870765  0.58560802  0.37533372     0.77200
C773        C  0.25733738  0.63391446  0.31325171     0.77600
C774        C  0.38045849  0.75474528  0.31937358     0.78700
C775        C  0.29600001  0.70799273  0.37767078     0.77800
Zn776      Zn  0.04913147  0.52950676  0.00598633     1.49700
Zn777      Zn  0.49562833  0.00050380  0.04003782     1.49400
Zn778      Zn  0.46962474  0.52509612  0.00343049     1.49100
Zn779      Zn  0.47566866  0.95124799  0.00369664     1.49500
O780        O  0.49734237  0.00165375  0.01305749    -1.84700
O781        O  0.08346270  0.54675142  0.02829082    -0.74100
O782        O  0.46925518  0.52534428  0.04943119    -0.73900
O783        O  0.00306758  0.56766916  0.98652979    -0.73400
O784        O  0.04538388  0.52384712  0.05209407    -0.74100
O785        O  0.05810637  0.57208613  0.98952566    -0.73700
O786        O  0.44993938  0.54329697  0.02476132    -0.74300
O787        O  0.43476720  0.94067992  0.98547272    -0.73700
O788        O  0.46830702  0.94966095  0.04948847    -0.74500
O789        O  0.42690915  0.98942464  0.98710037    -0.73800
O790        O  0.45498650  0.91373007  0.02467772    -0.74300
O791        O  0.01307987  0.94380055  0.98990341    -0.74200
O792        O  0.06329272  0.99832485  0.99087676    -0.74000
C793        C  0.07787673  0.54149755  0.04576108     0.77800
C794        C  0.45260811  0.54101476  0.04245597     0.78300
C795        C  0.03702659  0.58274814  0.98232478     0.77200
C796        C  0.41778553  0.95769066  0.98068325     0.77600
C797        C  0.45385236  0.91805035  0.04220262     0.78700
C798        C  0.04658087  0.96500313  0.98574335     0.77800
C799        C  0.07577015  0.53826611  0.23778342    -0.11300
C800        C  0.08239058  0.52075934  0.25304191     0.04200
C801        C  0.11382879  0.53990064  0.26391734    -0.11900
C802        C  0.13933072  0.57633869  0.25987046     0.19000
C803        C  0.13377162  0.59371769  0.24434511    -0.08900
C804        C  0.10201133  0.57474947  0.23351940    -0.01900
H805        H  0.11852265  0.52623760  0.27566331     0.05500
C806        C  0.17153944  0.59497993  0.27215837     0.21000
H807        H  0.09747082  0.58877927  0.22192153     0.10700
C808        C  0.19936190  0.58579041  0.27079135    -0.15200
C809        C  0.22785460  0.59867068  0.28385780     0.03700
C810        C  0.22861632  0.62111896  0.29870006    -0.10600
C811        C  0.20129865  0.63129484  0.29964641    -0.00600
C812        C  0.17262153  0.61805097  0.28661439    -0.05700
H813        H  0.19845753  0.56788768  0.25969629     0.06700
H814        H  0.20153440  0.64851965  0.31092436     0.10100
Br815      Br  0.16890037  0.64289826  0.23736099    -0.05400
Br816      Br  0.05151708  0.97049005  0.25951709    -0.02400
Br817      Br  0.26539041  0.58555531  0.28019776     0.00500
Br818      Br  0.13427797  0.63010610  0.28972468    -0.03900
C819        C  0.39678079  0.78808915  0.30755640    -0.11300
C820        C  0.43454185  0.81435192  0.30802237     0.04200
C821        C  0.44860726  0.84377442  0.29537062    -0.11900
C822        C  0.42559794  0.84744699  0.28223628     0.19000
C823        C  0.38807415  0.82142078  0.28178862    -0.08900
C824        C  0.37392109  0.79233411  0.29448676    -0.01900
H825        H  0.47755939  0.86386989  0.29576473     0.05500
C826        C  0.44100930  0.87793654  0.26868786     0.21000
H827        H  0.34503334  0.77216092  0.29366598     0.10700
C828        C  0.46195797  0.87681526  0.25382146    -0.15200
C829        C  0.47556977  0.90438619  0.24020129     0.03700
C830        C  0.46706902  0.93316769  0.24107088    -0.10600
C831        C  0.44673191  0.93446819  0.25628004    -0.00600
C832        C  0.43402591  0.90740326  0.27009655    -0.05700
H833        H  0.46827336  0.85467405  0.25301039     0.06700
H834        H  0.44090656  0.95688619  0.25748977     0.10100
Br835      Br  0.35555816  0.82347502  0.26336507    -0.05400
Br836      Br  0.46786904  0.81243194  0.32597376    -0.02400
Br837      Br  0.01001514  0.90377707  0.22284909     0.00500
Br838      Br  0.40823473  0.91233994  0.29093290    -0.03900
C839        C  0.38413417  0.60825379  0.29928587    -0.11300
C840        C  0.39745387  0.62505231  0.28178166     0.04200
C841        C  0.41161160  0.60969425  0.26932454    -0.11900
C842        C  0.41271267  0.57774896  0.27406113     0.19000
C843        C  0.39895150  0.56063322  0.29139568    -0.08900
C844        C  0.38433868  0.57569273  0.30378287    -0.01900
H845        H  0.42217523  0.62289900  0.25596979     0.05500
C846        C  0.43080103  0.56428690  0.26131066     0.21000
H847        H  0.37426369  0.56265221  0.31721730     0.10700
C848        C  0.46917000  0.58204721  0.26117541    -0.15200
C849        C  0.48761061  0.56981535  0.24963952     0.03700
C850        C  0.46752046  0.53951335  0.23788823    -0.10600
C851        C  0.42906489  0.52221876  0.23771816    -0.00600
C852        C  0.41060265  0.53438390  0.24936639    -0.05700
H853        H  0.48479865  0.60541448  0.27017961     0.06700
H854        H  0.41342267  0.99894453  0.22867608     0.10100
Br855      Br  0.40147302  0.51792651  0.29907297    -0.05400
Br856      Br  0.39568231  0.66809071  0.27389950    -0.02400
Br857      Br  0.04008217  0.59662081  0.24991094     0.00500
Br858      Br  0.35802523  0.00959446  0.24856383    -0.03900
C859        C  0.43603271  0.88616196  0.05472982    -0.11300
C860        C  0.41323896  0.88541369  0.06933850     0.04200
C861        C  0.40035676  0.85718531  0.08252084    -0.11900
C862        C  0.40978434  0.82947350  0.08142769     0.19000
C863        C  0.43126216  0.82928580  0.06642095    -0.08900
C864        C  0.44425801  0.85760663  0.05318100    -0.01900
H865        H  0.38278960  0.85675436  0.09367779     0.05500
C866        C  0.39422711  0.79957022  0.09530030     0.21000
H867        H  0.46161447  0.85785645  0.04196484     0.10700
C868        C  0.35676598  0.77445393  0.09427455    -0.15200
C869        C  0.34042760  0.74532905  0.10684884     0.03700
C870        C  0.36148947  0.74154461  0.12132311    -0.10600
C871        C  0.39891522  0.76789135  0.12281487    -0.00600
C872        C  0.41550009  0.79634481  0.10970629    -0.05700
H873        H  0.34021786  0.77720391  0.08334723     0.06700
H874        H  0.41577901  0.76506232  0.13351658     0.10100
Br875      Br  0.44297730  0.79074150  0.06331881    -0.05400
Br876      Br  0.39751936  0.92133477  0.07149853    -0.02400
Br877      Br  0.28907791  0.71272683  0.10337345     0.00500
Br878      Br  0.46732589  0.82918051  0.11149471    -0.03900
C879        C  0.10925216  0.55496032  0.05912088    -0.11300
C880        C  0.14562440  0.58146819  0.05428510     0.04200
C881        C  0.17386863  0.59221452  0.06747284    -0.11900
C882        C  0.16680142  0.57758706  0.08558414     0.19000
C883        C  0.13078021  0.55168388  0.09057323    -0.08900
C884        C  0.10252290  0.54041144  0.07739777    -0.01900
H885        H  0.20148535  0.61290800  0.06373147     0.05500
C886        C  0.19696437  0.59218825  0.09940293     0.21000
H887        H  0.07507902  0.52005504  0.08155937     0.10700
C888        C  0.19753870  0.61604222  0.11315861    -0.15200
C889        C  0.22749263  0.63384540  0.12522951     0.03700
C890        C  0.25782246  0.62790200  0.12355624    -0.10600
C891        C  0.25663063  0.60312933  0.11008806    -0.00600
C892        C  0.22646741  0.58517876  0.09812581    -0.05700
H893        H  0.17503442  0.62180972  0.11406661     0.06700
H894        H  0.27942049  0.59787722  0.10880597     0.10100
Br895      Br  0.11892594  0.53088024  0.11519014    -0.05400
Br896      Br  0.15896785  0.60612102  0.03054169    -0.02400
Br897      Br  0.22611288  0.66825362  0.14221702     0.00500
Br898      Br  0.22656300  0.55114909  0.08038684    -0.03900
C899        C  0.36574597  0.63545506  0.11897098    -0.11300
C900        C  0.38881615  0.65468007  0.10384704     0.04200
C901        C  0.39874956  0.63626975  0.09100023    -0.11900
C902        C  0.38633573  0.59876012  0.09291335     0.19000
C903        C  0.36351330  0.57936147  0.10800682    -0.08900
C904        C  0.35313781  0.59768326  0.12081730    -0.01900
H905        H  0.41710457  0.65150999  0.07967282     0.05500
C906        C  0.40096365  0.58172257  0.08008763     0.21000
H907        H  0.33490136  0.58234963  0.13215580     0.10700
C908        C  0.43014641  0.57713711  0.08628597    -0.15200
C909        C  0.44768003  0.56463417  0.07427379     0.03700
C910        C  0.43575524  0.55606856  0.05543383    -0.10600
C911        C  0.40630988  0.56079362  0.04927849    -0.00600
C912        C  0.38899004  0.57357315  0.06144817    -0.05700
H913        H  0.43997287  0.58427189  0.10051991     0.06700
H914        H  0.39644640  0.55418792  0.03503740     0.10100
Br915      Br  0.34565933  0.52791174  0.11144236    -0.05400
Br916      Br  0.40998389  0.70637130  0.10040525    -0.02400
Br917      Br  0.48900953  0.56235280  0.08472048     0.00500
Br918      Br  0.34882356  0.57910825  0.05224849    -0.03900
C919        C  0.37760568  0.63830596  0.16088316    -0.11300
C920        C  0.36196477  0.60853499  0.17356980     0.04200
C921        C  0.38242849  0.59229632  0.18005825    -0.11900
C922        C  0.41858903  0.60490107  0.17413933     0.19000
C923        C  0.43453525  0.63496782  0.16172701    -0.08900
C924        C  0.41426416  0.65152102  0.15539391    -0.01900
H925        H  0.36976114  0.56911966  0.18954154     0.05500
C926        C  0.43861691  0.58569536  0.18084514     0.21000
H927        H  0.42679638  0.67409133  0.14555061     0.10700
C928        C  0.42752828  0.54983370  0.17476892    -0.15200
C929        C  0.44349250  0.52963178  0.18214708     0.03700
C930        C  0.47116768  0.54526648  0.19596827    -0.10600
C931        C  0.48365301  0.58200394  0.20106080    -0.00600
C932        C  0.46721274  0.60177651  0.19404827    -0.05700
H933        H  0.40560730  0.53712358  0.16457476     0.06700
H934        H  0.50543914  0.59501126  0.21127203     0.10100
Br935      Br  0.48299856  0.65276738  0.15203507    -0.05400
Br936      Br  0.31199207  0.58645552  0.18141620    -0.02400
Br937      Br  0.42456669  0.98031729  0.17361021     0.00500
Br938      Br  0.48264583  0.64942810  0.20427552    -0.03900
C939        C  0.26110896  0.62356471  0.16572978    -0.11300
C940        C  0.24917134  0.63769946  0.18030226     0.04200
C941        C  0.21297939  0.61733118  0.18691125    -0.11900
C942        C  0.18864855  0.58260844  0.17952821     0.19000
C943        C  0.20178759  0.56712453  0.16638329    -0.08900
C944        C  0.23780497  0.58720398  0.15995373    -0.01900
H945        H  0.20338192  0.62913882  0.19738835     0.05500
C946        C  0.14942730  0.56347399  0.18508754     0.21000
H947        H  0.24691803  0.57517533  0.14935864     0.10700
C948        C  0.12627157  0.57673683  0.17870804    -0.15200
C949        C  0.08945850  0.56022793  0.18437791     0.03700
C950        C  0.07514221  0.52955054  0.19641255    -0.10600
C951        C  0.09784441  0.51499509  0.20175134    -0.00600
C952        C  0.13483154  0.53222670  0.19665607    -0.05700
H953        H  0.13722603  0.60074660  0.16975716     0.06700
H954        H  0.08748721  0.49184088  0.21127290     0.10100
Br955      Br  0.17072354  0.51997386  0.15549342    -0.05400
Br956      Br  0.27940434  0.68572091  0.19039313    -0.02400
Br957      Br  0.06133026  0.58301823  0.17695741     0.00500
Br958      Br  0.16523776  0.51444223  0.20743472    -0.03900
C959        C  0.36439191  0.74348292  0.16374390    -0.11300
C960        C  0.35045635  0.76797806  0.16169093     0.04200
C961        C  0.36962179  0.80335726  0.16898718    -0.11900
C962        C  0.40233044  0.81512629  0.17896936     0.19000
C963        C  0.41456329  0.78966636  0.18265816    -0.08900
C964        C  0.39585651  0.75429439  0.17484014    -0.01900
H965        H  0.35902578  0.82204520  0.16668997     0.05500
C966        C  0.42209507  0.85378837  0.18562643     0.21000
H967        H  0.40650505  0.73561888  0.17697237     0.10700
C968        C  0.40382766  0.86597984  0.19751758    -0.15200
C969        C  0.42076250  0.90234697  0.20365692     0.03700
C970        C  0.45737978  0.92712431  0.19854472    -0.10600
C971        C  0.47431593  0.91601532  0.18521825    -0.00600
C972        C  0.45701913  0.87965987  0.17878568    -0.05700
H973        H  0.37606070  0.84711376  0.20194675     0.06700
H974        H  0.50193072  0.93502866  0.18064714     0.10100
Br975      Br  0.45577137  0.80154106  0.19870617    -0.05400
Br976      Br  0.30482347  0.75485900  0.14956410    -0.02400
Br977      Br  0.39166398  0.91724219  0.21791889     0.00500
Br978      Br  0.48195788  0.86693650  0.16045926    -0.03900
C979        C  0.24195126  0.86478258  0.90036265    -0.11300
C980        C  0.26504550  0.90291404  0.90244284     0.04200
C981        C  0.29510195  0.91635907  0.91461605    -0.11900
C982        C  0.30282800  0.89243499  0.92493899     0.19000
C983        C  0.28055793  0.85430335  0.92246980    -0.08900
C984        C  0.25028039  0.84080045  0.91033992    -0.01900
H985        H  0.31187421  0.94571321  0.91653641     0.05500
C986        C  0.33216982  0.90800611  0.93931611     0.21000
H987        H  0.23243669  0.81143800  0.90913059     0.10700
C988        C  0.32642440  0.92330794  0.95547304    -0.15200
C989        C  0.35376866  0.93941061  0.96918866     0.03700
C990        C  0.38768177  0.94044716  0.96682590    -0.10600
C991        C  0.39323274  0.92479317  0.95072127    -0.00600
C992        C  0.36600818  0.90903736  0.93693131    -0.05700
H993        H  0.30041789  0.92256108  0.95744449     0.06700
H994        H  0.41924637  0.92561627  0.94863942     0.10100
Br995      Br  0.28890681  0.81969354  0.93629109    -0.05400
Br996      Br  0.25523552  0.93809943  0.89052944    -0.02400
Br997      Br  0.34255131  0.95751269  0.99132038     0.00500
Br998      Br  0.37681808  0.89082506  0.91472125    -0.03900
C999        C  0.05253673  0.61265114  0.96832913    -0.11300
C1000       C  0.03366962  0.61094772  0.95161073     0.04200
C1001       C  0.05015030  0.63889762  0.93828491    -0.11900
C1002       C  0.08526373  0.66887075  0.94126934     0.19000
C1003       C  0.10405513  0.67078421  0.95799112    -0.08900
C1004       C  0.08788860  0.64252012  0.97119928    -0.01900
H1005       H  0.03537369  0.63740968  0.92553856     0.05500
C1006       C  0.09989480  0.69958017  0.92771894     0.21000
H1007       H  0.10269823  0.64426877  0.98396897     0.10700
C1008       C  0.08156384  0.71979495  0.92573613    -0.15200
C1009       C  0.09500366  0.75025362  0.91392583     0.03700
C1010       C  0.12796652  0.76136207  0.90404674    -0.10600
C1011       C  0.14550641  0.74026028  0.90538392    -0.00600
C1012       C  0.13140505  0.70916311  0.91691611    -0.05700
H1013       H  0.05677348  0.71201746  0.93361104     0.06700
H1014       H  0.17023132  0.74805416  0.89744742     0.10100
Br1015     Br  0.15065286  0.71250562  0.96398909    -0.05400
Br1016     Br  0.98624195  0.57037043  0.94566253    -0.02400
Br1017     Br  0.06640280  0.77482466  0.91174994     0.00500
Br1018     Br  0.15520807  0.68001042  0.91695305    -0.03900
C1019       C  0.14429311  0.87502668  0.91329414    -0.11300
C1020       C  0.13073777  0.85943970  0.93134117     0.04200
C1021       C  0.11623284  0.87561311  0.94304593    -0.11900
C1022       C  0.11810949  0.90878713  0.93833852     0.19000
C1023       C  0.13714353  0.92750998  0.92229171    -0.08900
C1024       C  0.14978825  0.91056698  0.90995640    -0.01900
H1025       H  0.10388815  0.86255059  0.95620290     0.05500
C1026       C  0.10002218  0.92323736  0.95046251     0.21000
H1027       H  0.16452093  0.92572711  0.89782052     0.10700
C1028       C  0.12106436  0.95169274  0.96287485    -0.15200
C1029       C  0.10442517  0.96558916  0.97470165     0.03700
C1030       C  0.06585123  0.95070221  0.97416389    -0.10600
C1031       C  0.04494051  0.92166322  0.96186475    -0.00600
C1032       C  0.06169861  0.90795806  0.95007712    -0.05700
H1033       H  0.15055541  0.96297194  0.96341271     0.06700
H1034       H  0.01540963  0.90991852  0.96114004     0.10100
Br1035     Br  0.14655745  0.97619582  0.91682168    -0.05400
Br1036     Br  0.13306920  0.81931723  0.94323164    -0.02400
Br1037     Br  0.13601875  0.50344752  0.99173830     0.00500
Br1038     Br  0.03129057  0.86889120  0.93334871    -0.03900
C1039       C  0.02488521  0.95897717  0.83356714    -0.11300
C1040       C  0.01212110  0.92119668  0.83085860     0.04200
C1041       C  0.02937642  0.90397397  0.84000968    -0.11900
C1042       C  0.05802602  0.92315093  0.85284211     0.19000
C1043       C  0.06732171  0.95963590  0.85726873    -0.08900
C1044       C  0.05093194  0.97718171  0.84761405    -0.01900
H1045       H  0.02092539  0.87570480  0.83671932     0.05500
C1046       C  0.08009797  0.90614865  0.85991091     0.21000
H1047       H  0.05988711  0.00572594  0.85047399     0.10700
C1048       C  0.11802791  0.92454844  0.85671249    -0.15200
C1049       C  0.14026845  0.91018935  0.86285025     0.03700
C1050       C  0.12461209  0.87525929  0.87150269    -0.10600
C1051       C  0.08648192  0.85656232  0.87456438    -0.00600
C1052       C  0.06438633  0.87181867  0.86913552    -0.05700
H1053       H  0.13073194  0.95101072  0.84977358     0.06700
H1054       H  0.07392438  0.83029876  0.88165632     0.10100
Br1055     Br  0.10233771  0.98707619  0.87628824    -0.05400
Br1056     Br  0.96988743  0.89138081  0.81571572    -0.02400
Br1057     Br  0.19187958  0.94292142  0.86156589     0.00500
Br1058     Br  0.01349087  0.84585333  0.87581109    -0.03900
C1059       C  0.03217812  0.57590317  0.83034735    -0.11300
C1060       C  0.06984741  0.59783233  0.83433517     0.04200
C1061       C  0.08357322  0.63352816  0.84123457    -0.11900
C1062       C  0.06078966  0.64920097  0.84334812     0.19000
C1063       C  0.02290661  0.62702326  0.83928597    -0.08900
C1064       C  0.00879877  0.59012747  0.83414348    -0.01900
H1065       H  0.11260061  0.64961465  0.84436430     0.05500
C1066       C  0.07775077  0.68871992  0.84914282     0.21000
H1067       H  0.97975929  0.57359102  0.83115380     0.10700
C1068       C  0.11045950  0.71538519  0.84059198    -0.15200
C1069       C  0.13020203  0.75153510  0.84746717     0.03700
C1070       C  0.11618817  0.76264002  0.86244644    -0.10600
C1071       C  0.08122509  0.73711891  0.86910324    -0.00600
C1072       C  0.06385687  0.70013863  0.86399107    -0.05700
H1073       H  0.12188066  0.70752219  0.82914789     0.06700
H1074       H  0.06859414  0.74504911  0.87960983     0.10100
Br1075     Br  0.99014741  0.64674496  0.83709239    -0.05400
Br1076     Br  0.10394259  0.58070867  0.83023152    -0.02400
Br1077     Br  0.17721171  0.78300316  0.83671799     0.00500
Br1078     Br  0.02620204  0.66630943  0.88052200    -0.03900
C1079       C  0.23347460  0.86454166  0.85820120    -0.11300
C1080       C  0.24235565  0.89227242  0.84475200     0.04200
C1081       C  0.27895457  0.91412756  0.83914230    -0.11900
C1082       C  0.30587495  0.90399856  0.84307041     0.19000
C1083       C  0.29421390  0.87069071  0.85309072    -0.08900
C1084       C  0.25920827  0.85258782  0.86116767    -0.01900
H1085       H  0.28575490  0.93875639  0.83133491     0.05500
C1086       C  0.34517478  0.92789954  0.83674380     0.21000
H1087       H  0.25197695  0.82885877  0.86995519     0.10700
C1088       C  0.37423748  0.93195287  0.84835319    -0.15200
C1089       C  0.41069114  0.94885601  0.84203045     0.03700
C1090       C  0.42028573  0.96812289  0.82474681    -0.10600
C1091       C  0.39185992  0.96973680  0.81484453    -0.00600
C1092       C  0.35482374  0.94717513  0.81951536    -0.05700
H1093       H  0.36842569  0.91993302  0.86218110     0.06700
H1094       H  0.39800263  0.98595302  0.80221148     0.10100
Br1095     Br  0.32313991  0.84668570  0.85561140    -0.05400
Br1096     Br  0.20594868  0.89533711  0.82978588    -0.02400
Br1097     Br  0.44328681  0.93955410  0.85715913     0.00500
Br1098     Br  0.32009452  0.94000323  0.80005122    -0.03900
C1099       C  0.43506011  0.96550343  0.78207213    -0.11300
C1100       C  0.43437412  0.98224978  0.76491416     0.04200
C1101       C  0.40511279  0.96403376  0.75257036    -0.11900
C1102       C  0.37529575  0.92985772  0.75702913     0.19000
C1103       C  0.37699331  0.91167480  0.77332894    -0.08900
C1104       C  0.40728625  0.92911008  0.78535336    -0.01900
H1105       H  0.40470568  0.97753760  0.73967492     0.05500
C1106       C  0.34258320  0.91506907  0.74468864     0.21000
H1107       H  0.40804070  0.91495876  0.79791856     0.10700
C1108       C  0.33018157  0.88117088  0.73579223    -0.15200
C1109       C  0.30029730  0.86762235  0.72346228     0.03700
C1110       C  0.28332557  0.88870188  0.71941326    -0.10600
C1111       C  0.29544774  0.92234657  0.72828177    -0.00600
C1112       C  0.32469661  0.93561282  0.74088778    -0.05700
H1113       H  0.34369113  0.86519222  0.73847613     0.06700
H1114       H  0.28166460  0.93809093  0.72560986     0.10100
Br1115     Br  0.33747487  0.86475690  0.78077477    -0.05400
Br1116     Br  0.47010421  0.53056025  0.75717386    -0.02400
Br1117     Br  0.28221366  0.81950239  0.71324214     0.00500
Br1118     Br  0.33784465  0.98131700  0.75295801    -0.03900
C1119       C  0.04368829  0.57526385  0.78874065    -0.11300
C1120       C  0.03048936  0.59968949  0.78440599     0.04200
C1121       C  0.04981513  0.62853205  0.77192226    -0.11900
C1122       C  0.08144824  0.63285751  0.76313052     0.19000
C1123       C  0.09474902  0.60870788  0.76739981    -0.08900
C1124       C  0.07590327  0.58020501  0.78019781    -0.01900
H1125       H  0.03913087  0.64669550  0.76832662     0.05500
C1126       C  0.09869002  0.66170209  0.74882810     0.21000
H1127       H  0.08579192  0.56111962  0.78308772     0.10700
C1128       C  0.12606276  0.69658001  0.75419742    -0.15200
C1129       C  0.13972757  0.72585913  0.74156583     0.03700
C1130       C  0.12514064  0.72048104  0.72315338    -0.10600
C1131       C  0.09896958  0.68485043  0.71762501    -0.00600
C1132       C  0.08576106  0.65559853  0.73031218    -0.05700
H1133       H  0.13637008  0.70116401  0.76841156     0.06700
H1134       H  0.08779455  0.67987055  0.70359150     0.10100
Br1135     Br  0.13726540  0.61260732  0.75534060    -0.05400
Br1136     Br  0.48362031  0.59220538  0.79237465    -0.02400
Br1137     Br  0.17884847  0.77181919  0.75061331     0.00500
Br1138     Br  0.04920616  0.60788858  0.72204266    -0.03900
C1139       C  0.03404395  0.96178784  0.79077854    -0.11300
C1140       C  0.07048002  0.96850426  0.79215526     0.04200
C1141       C  0.08279111  0.95059464  0.78008546    -0.11900
C1142       C  0.05953488  0.92653436  0.76632432     0.19000
C1143       C  0.02316273  0.91959477  0.76503830    -0.08900
C1144       C  0.01087543  0.93735939  0.77705529    -0.01900
H1145       H  0.11105847  0.95657685  0.78093027     0.05500
C1146       C  0.07428769  0.91102125  0.75252523     0.21000
H1147       H  0.48295570  0.93220155  0.77559500     0.10700
C1148       C  0.07705370  0.87990751  0.75713035    -0.15200
C1149       C  0.09075736  0.86462582  0.74424265     0.03700
C1150       C  0.10227626  0.88080160  0.72634093    -0.10600
C1151       C  0.09870608  0.91157148  0.72172165    -0.00600
C1152       C  0.08508700  0.92677948  0.73465742    -0.05700
H1153       H  0.06823881  0.86730445  0.77075792     0.06700
H1154       H  0.10750364  0.92451954  0.70817003     0.10100
Br1155     Br  0.98957600  0.88670698  0.74676751    -0.05400
Br1156     Br  0.10572783  0.50453183  0.80862904    -0.02400
Br1157     Br  0.09110137  0.82060012  0.75169631     0.00500
Br1158     Br  0.08259470  0.96977878  0.72756502    -0.03900
C1159       C  0.20174573  0.79736524  0.45201647    -0.11300
C1160       C  0.22939635  0.81690953  0.43879081     0.04200
C1161       C  0.24113452  0.79827296  0.42713057    -0.11900
C1162       C  0.22552923  0.76012375  0.42822142     0.19000
C1163       C  0.19769400  0.74030540  0.44133391    -0.08900
C1164       C  0.18611485  0.75906422  0.45319881    -0.01900
H1165       H  0.26295220  0.81369500  0.41724899     0.05500
C1166       C  0.24095158  0.74270115  0.41619176     0.21000
H1167       H  0.16470848  0.74377123  0.46327329     0.10700
C1168       C  0.27609765  0.74843870  0.42040750    -0.15200
C1169       C  0.29474623  0.73791875  0.40797937     0.03700
C1170       C  0.27794777  0.72092160  0.39093706    -0.10600
C1171       C  0.24247232  0.71484274  0.38684707    -0.00600
C1172       C  0.22399249  0.72567361  0.39930067    -0.05700
H1173       H  0.28966585  0.76251855  0.43316044     0.06700
H1174       H  0.22904600  0.70162513  0.37391485     0.10100
Br1175     Br  0.17526310  0.68803915  0.44366787    -0.05400
Br1176     Br  0.25404842  0.86921881  0.43684447    -0.02400
Br1177     Br  0.34425559  0.75076724  0.41445950     0.00500
Br1178     Br  0.17651957  0.71833756  0.39231591    -0.03900
C1179       C  0.45103980  0.70383830  0.38674262    -0.11300
C1180       C  0.48809251  0.72537160  0.38116259     0.04200
C1181       C  0.01609726  0.73678110  0.39454648    -0.11900
C1182       C  0.00806099  0.72632377  0.41331870     0.19000
C1183       C  0.47173426  0.70213042  0.41854813    -0.08900
C1184       C  0.44366771  0.69121040  0.40536576    -0.01900
H1185       H  0.04420511  0.75516657  0.39043412     0.05500
C1186       C  0.03700228  0.74451007  0.42754343     0.21000
H1187       H  0.41573923  0.67342523  0.40992486     0.10700
C1188       C  0.03455787  0.76927883  0.43973403    -0.15200
C1189       C  0.06274499  0.78983142  0.45236504     0.03700
C1190       C  0.09398811  0.78531833  0.45307877    -0.10600
C1191       C  0.09616890  0.76028628  0.44089472    -0.00600
C1192       C  0.06797131  0.73982316  0.42826176    -0.05700
H1193       H  0.01116045  0.77369980  0.43887216     0.06700
H1194       H  0.12010537  0.75677780  0.44112604     0.10100
Br1195     Br  0.45920541  0.68395367  0.44365564    -0.05400
Br1196     Br  0.50288652  0.74191885  0.35599457    -0.02400
Br1197     Br  0.05870970  0.82677589  0.46610474     0.00500
Br1198     Br  0.07287423  0.70578573  0.41239081    -0.03900
C1199       C  0.27011586  0.55395756  0.38811171    -0.11300
C1200       C  0.26102886  0.55792184  0.40666434     0.04200
C1201       C  0.24671081  0.52784548  0.41876467    -0.11900
C1202       C  0.24082979  0.99368508  0.41272523     0.19000
C1203       C  0.24841169  0.98922156  0.39413972    -0.08900
C1204       C  0.26298962  0.51925486  0.38199661    -0.01900
H1205       H  0.23990459  0.53101210  0.43295445     0.05500
C1206       C  0.22553622  0.96266863  0.42587231     0.21000
H1207       H  0.26968031  0.51561602  0.36787099     0.10700
C1208       C  0.18931728  0.93491940  0.42341302    -0.15200
C1209       C  0.17382049  0.90462549  0.43530728     0.03700
C1210       C  0.19443776  0.90223718  0.45044738    -0.10600
C1211       C  0.23085248  0.93049950  0.45291964    -0.00600
C1212       C  0.24651673  0.96041853  0.44068161    -0.05700
H1213       H  0.17310281  0.93675936  0.41202166     0.06700
H1214       H  0.24760154  0.92868613  0.46401523     0.10100
Br1215     Br  0.24055939  0.94293581  0.38497442    -0.05400
Br1216     Br  0.26561773  0.60277015  0.41634184    -0.02400
Br1217     Br  0.12409714  0.86878893  0.43005240     0.00500
Br1218     Br  0.29716689  0.99642291  0.44389352    -0.03900
C1219       C  0.30245721  0.70741897  0.57051967    -0.11300
C1220       C  0.32201220  0.73059793  0.58563218     0.04200
C1221       C  0.30541055  0.74517521  0.59701908    -0.11900
C1222       C  0.26957019  0.73786111  0.59358327     0.19000
C1223       C  0.25024240  0.71598591  0.57820248    -0.08900
C1224       C  0.26644212  0.70047939  0.56700560    -0.01900
H1225       H  0.32061920  0.76245066  0.60868887     0.05500
C1226       C  0.25274806  0.75249567  0.60667554     0.21000
H1227       H  0.25071382  0.68268874  0.55561106     0.10700
C1228       C  0.25599017  0.78699882  0.60333964    -0.15200
C1229       C  0.24184716  0.80222905  0.61602143     0.03700
C1230       C  0.22390123  0.78265841  0.63237146    -0.10600
C1231       C  0.22059024  0.74799503  0.63555775    -0.00600
C1232       C  0.23521804  0.73312562  0.62301189    -0.05700
H1233       H  0.26965346  0.80214891  0.59083866     0.06700
H1234       H  0.20714503  0.73266424  0.64805325     0.10100
Br1235     Br  0.20173866  0.70664762  0.57214252    -0.05400
Br1236     Br  0.37205016  0.74565287  0.59124386    -0.02400
Br1237     Br  0.24618678  0.84884191  0.60971279     0.00500
Br1238     Br  0.23137686  0.68657954  0.62888126    -0.03900
C1239       C  0.40411800  0.69558767  0.57239030    -0.11300
C1240       C  0.40638427  0.67709356  0.58853673     0.04200
C1241       C  0.43669898  0.69417695  0.60038988    -0.11900
C1242       C  0.46462572  0.72990027  0.59687361     0.19000
C1243       C  0.46248427  0.74882168  0.58108589    -0.08900
C1244       C  0.43259742  0.73154562  0.56887889    -0.01900
H1245       H  0.43836545  0.67962719  0.61260413     0.05500
C1246       C  0.49562318  0.74666297  0.61003874     0.21000
H1247       H  0.43083998  0.74684669  0.55704291     0.10700
C1248       C  0.02428144  0.73875220  0.60830462    -0.15200
C1249       C  0.05313861  0.75231941  0.62120905     0.03700
C1250       C  0.05331484  0.77403908  0.63629145    -0.10600
C1251       C  0.02465839  0.78223791  0.63780229    -0.00600
C1252       C  0.49579760  0.76849550  0.62488877    -0.05700
H1253       H  0.02417662  0.72197016  0.59682646     0.06700
H1254       H  0.02447211  0.79902281  0.64919855     0.10100
Br1255     Br  0.49892193  0.79867449  0.57625621    -0.05400
Br1256     Br  0.37030281  0.62823281  0.59531312    -0.02400
Br1257     Br  0.09242041  0.74210267  0.61665072     0.00500
Br1258     Br  0.45676518  0.77945655  0.62820531    -0.03900
C1259       C  0.28906217  0.59457095  0.57186556    -0.11300
C1260       C  0.29484449  0.56401930  0.57198646     0.04200
C1261       C  0.27695749  0.53603961  0.58514387    -0.11900
C1262       C  0.25382983  0.53803067  0.59856347     0.19000
C1263       C  0.24820343  0.56849505  0.59862041    -0.08900
C1264       C  0.26578675  0.59639671  0.58536651    -0.01900
H1265       H  0.28222503  0.51315095  0.58538731     0.05500
C1266       C  0.23862124  0.50944442  0.61323747     0.21000
H1267       H  0.26161422  0.61996626  0.58572589     0.10700
C1268       C  0.26252792  0.00851525  0.62675459    -0.15200
C1269       C  0.25031261  0.98005272  0.63987158     0.03700
C1270       C  0.21334982  0.95167970  0.63960515    -0.10600
C1271       C  0.18913344  0.95348214  0.62644613    -0.00600
C1272       C  0.20157334  0.98182848  0.61320481    -0.05700
H1273       H  0.29106739  0.52982179  0.62689333     0.06700
H1274       H  0.16076648  0.93184973  0.62588369     0.10100
Br1275     Br  0.21854389  0.57421910  0.61713404    -0.05400
Br1276     Br  0.33061617  0.56092259  0.55673660    -0.02400
Br1277     Br  0.28535317  0.98213704  0.65797656     0.00500
Br1278     Br  0.16777297  0.98035315  0.59453084    -0.03900
C1279       C  0.30672631  0.71173233  0.52819292    -0.11300
C1280       C  0.27745835  0.69582204  0.51520460     0.04200
C1281       C  0.26110652  0.71600445  0.50844234    -0.11900
C1282       C  0.27381238  0.75234824  0.51403413     0.19000
C1283       C  0.30463376  0.76914015  0.52588611    -0.08900
C1284       C  0.32087306  0.74899411  0.53274064    -0.01900
H1285       H  0.23789163  0.70305614  0.49898893     0.05500
C1286       C  0.25430648  0.77206625  0.50752295     0.21000
H1287       H  0.34361611  0.76200355  0.54246652     0.10700
C1288       C  0.22132397  0.76499050  0.51604483    -0.15200
C1289       C  0.20091667  0.78126499  0.50939029     0.03700
C1290       C  0.21358787  0.80542120  0.49386523    -0.10600
C1291       C  0.24830462  0.81461890  0.48652019    -0.00600
C1292       C  0.26782985  0.79732649  0.49269537    -0.05700
H1293       H  0.21092031  0.74593152  0.52767167     0.06700
H1294       H  0.25962884  0.83417070  0.47517433     0.10100
Br1295     Br  0.32415491  0.81892717  0.53389145    -0.05400
Br1296     Br  0.25707992  0.64633541  0.50679593    -0.02400
Br1297     Br  0.15551745  0.76759531  0.52172801     0.00500
Br1298     Br  0.31138259  0.80686096  0.47948115    -0.03900
C1299       C  0.28807802  0.59161666  0.52897131    -0.11300
C1300       C  0.25036407  0.56718866  0.53216148     0.04200
C1301       C  0.23360405  0.53142740  0.52500743    -0.11900
C1302       C  0.25314340  0.51935222  0.51394560     0.19000
C1303       C  0.28952907  0.54519772  0.50889801    -0.08900
C1304       C  0.30665978  0.58082872  0.51644065    -0.01900
H1305       H  0.20501213  0.51283999  0.52814395     0.05500
C1306       C  0.23399830  0.98055999  0.50698006     0.21000
H1307       H  0.33519766  0.59953430  0.51324732     0.10700
C1308       C  0.20161011  0.96815076  0.49648660    -0.15200
C1309       C  0.18251327  0.93217490  0.48966855     0.03700
C1310       C  0.19615129  0.90765689  0.49272916    -0.10600
C1311       C  0.22736245  0.91926263  0.50412011    -0.00600
C1312       C  0.24593274  0.95509285  0.51143909    -0.05700
H1313       H  0.19104201  0.98665576  0.49354847     0.06700
H1314       H  0.23787763  0.90068371  0.50696784     0.10100
Br1315     Br  0.31678010  0.53367278  0.49142787    -0.05400
Br1316     Br  0.21955431  0.58177463  0.54506382    -0.02400
Br1317     Br  0.13713320  0.91776628  0.47685744     0.00500
Br1318     Br  0.28626107  0.96717590  0.52815875    -0.03900
C1319       C  0.09365378  0.78790535  0.49562699    -0.11300
C1320       C  0.07142179  0.74951569  0.49376886     0.04200
C1321       C  0.03523727  0.73172659  0.50041991    -0.11900
C1322       C  0.02046700  0.75124972  0.50943165     0.19000
C1323       C  0.04414648  0.78895023  0.51309886    -0.08900
C1324       C  0.08035864  0.80681969  0.50629980    -0.01900
H1325       H  0.01833964  0.70245610  0.49831495     0.05500
C1326       C  0.48122908  0.73108285  0.51581196     0.21000
H1327       H  0.09732212  0.83613330  0.50826323     0.10700
C1328       C  0.46997177  0.70089379  0.52784573    -0.15200
C1329       C  0.43385594  0.68142312  0.53448068     0.03700
C1330       C  0.40813865  0.69306907  0.53003702    -0.10600
C1331       C  0.41851955  0.72152025  0.51686874    -0.00600
C1332       C  0.45433583  0.73982303  0.50943274    -0.05700
H1333       H  0.98946821  0.69227854  0.53211158     0.06700
H1334       H  0.39899493  0.73012311  0.51265409     0.10100
Br1335     Br  0.02865198  0.81753052  0.52724634    -0.05400
Br1336     Br  0.08958459  0.71984260  0.48285518    -0.02400
Br1337     Br  0.42110067  0.63810218  0.54887426     0.00500
Br1338     Br  0.46444888  0.77479854  0.48977118    -0.03900
C1339       C  0.83263498  0.16517880  0.56768029     0.46100
H1340       H  0.83172502  0.16537648  0.58316076    -0.02900
C1341       C  0.83415724  0.16492949  0.53135344     0.46200
H1342       H  0.83496173  0.16498927  0.51586343    -0.02900
C1343       C  0.87130032  0.17929933  0.55984662    -0.16600
C1344       C  0.80938735  0.12685327  0.55930862    -0.16400
C1345       C  0.81838441  0.18914482  0.55877977    -0.16700
C1346       C  0.87261646  0.17908746  0.54060812    -0.16700
C1347       C  0.80935127  0.12625083  0.54006877    -0.16300
C1348       C  0.81906081  0.18936788  0.53951796    -0.16600
C1349       C  0.66398776  0.33101249  0.45569755     0.46100
H1350       H  0.66305363  0.32956461  0.44019926    -0.02900
C1351       C  0.66696385  0.33390870  0.49202396     0.46200
H1352       H  0.66835469  0.33576420  0.50746750    -0.02900
C1353       C  0.62655544  0.30838938  0.46486512    -0.16600
C1354       C  0.68769902  0.31627421  0.46413665    -0.16400
C1355       C  0.67935258  0.36992692  0.46324615    -0.16700
C1356       C  0.62749104  0.30920849  0.48408180    -0.16700
C1357       C  0.69022381  0.31788438  0.48334387    -0.16300
C1358       C  0.68089881  0.37191904  0.48244270    -0.16600
Zn1359     Zn  0.71530164  0.36107361  0.66929440     1.49700
Zn1360     Zn  0.66818202  0.33377356  0.70670169     1.49400
Zn1361     Zn  0.63628623  0.35664865  0.67254743     1.49100
Zn1362     Zn  0.64331027  0.28251142  0.67088317     1.49500
O1363       O  0.66567513  0.33351066  0.67963400    -1.83500
O1364       O  0.75346626  0.37605465  0.68992810    -0.74100
O1365       O  0.63982721  0.35480476  0.71889698    -0.73900
O1366       O  0.66680330  0.40270101  0.65730441    -0.73400
O1367       O  0.71964732  0.36065728  0.71573852    -0.74100
O1368       O  0.72142430  0.40612404  0.65565333    -0.73700
O1369       O  0.61554320  0.36997584  0.69522919    -0.74300
O1370       O  0.59871698  0.27117662  0.65527035    -0.73700
O1371       O  0.64868379  0.28354633  0.71664962    -0.74500
O1372       O  0.59482068  0.32234457  0.65581215    -0.73800
O1373       O  0.63057880  0.24605661  0.69244400    -0.74300
O1374       O  0.67719828  0.27532441  0.65351603    -0.74200
O1375       O  0.72536815  0.33100649  0.65055345    -0.74000
C1376       C  0.75050135  0.37443428  0.70765235     0.77800
C1377       C  0.61980906  0.36755413  0.71275612     0.78300
C1378       C  0.69998932  0.41875452  0.65173317     0.77200
C1379       C  0.58374130  0.28986702  0.64995861     0.77600
C1380       C  0.63544677  0.25154653  0.70999708     0.78700
C1381       C  0.70801556  0.29720341  0.64615035     0.77800
C1382       C  0.50459032  0.00376420  0.79130928     0.46100
H1383       H  0.50949310  0.00441436  0.77608195    -0.02900
C1384       C  0.49488901  0.00227804  0.82714610     0.46200
H1385       H  0.49202825  0.00316237  0.84242404    -0.02900
C1386       C  0.96396135  0.48509521  0.79669285    -0.16600
C1387       C  0.51979019  0.48227959  0.80173164    -0.16400
C1388       C  0.52244321  0.04184337  0.80019869    -0.16700
C1389       C  0.95809209  0.48443159  0.81589338    -0.16700
C1390       C  0.51442748  0.48067548  0.82074073    -0.16300
C1391       C  0.51779914  0.04146875  0.81910549    -0.16600
C1392       C  0.66010612  0.33689033  0.86614591     0.46100
H1393       H  0.65462844  0.33815025  0.85110570    -0.02900
C1394       C  0.67086366  0.33245832  0.90163907     0.46200
H1395       H  0.67727970  0.33048514  0.91634877    -0.02900
C1396       C  0.64717156  0.35879733  0.87885803    -0.16600
C1397       C  0.63944659  0.29689225  0.87379540    -0.16400
C1398       C  0.70132573  0.35141791  0.87138337    -0.16700
C1399       C  0.65330877  0.35634636  0.89782265    -0.16700
C1400       C  0.64498577  0.29536073  0.89265841    -0.16300
C1401       C  0.70611114  0.34944920  0.89030821    -0.16600
C1402       C  0.82902791  0.17001234  0.12515680     0.46100
H1403       H  0.82686445  0.16976729  0.10968149    -0.02900
C1404       C  0.83425222  0.16977624  0.16142434     0.46200
H1405       H  0.83678043  0.16972290  0.17685683    -0.02900
C1406       C  0.79195468  0.14804932  0.13485831    -0.16600
C1407       C  0.85236657  0.15350008  0.13217770    -0.16400
C1408       C  0.84619613  0.20837842  0.13357379    -0.16700
C1409       C  0.79416618  0.14717748  0.15404239    -0.16700
C1410       C  0.85549752  0.15315038  0.15131409    -0.16300
C1411       C  0.84888843  0.20872557  0.15275021    -0.16600
C1412       C  0.00133542  0.50058439  0.19884719     0.46100
H1413       H  0.00072336  0.49925493  0.18337085    -0.02900
C1414       C  0.00378054  0.50384611  0.23523087     0.46200
H1415       H  0.00484513  0.50566301  0.25071664    -0.02900
C1416       C  0.98487320  0.02364664  0.20703467    -0.16600
C1417       C  0.97955736  0.46255157  0.20861503    -0.16400
C1418       C  0.54072935  0.01775104  0.20721824    -0.16700
C1419       C  0.98590467  0.02438806  0.22623362    -0.16700
C1420       C  0.98231736  0.46467299  0.22780185    -0.16300
C1421       C  0.54153959  0.01972612  0.22637787    -0.16600
Zn1422     Zn  0.83776679  0.16744000  0.37246897     1.49700
Zn1423     Zn  0.88592376  0.19095595  0.33606065     1.49400
Zn1424     Zn  0.80825341  0.11739648  0.33656325     1.49100
Zn1425     Zn  0.81131943  0.19527316  0.33793067     1.49500
O1426       O  0.83580995  0.16783808  0.34555555    -1.83500
O1427       O  0.88829265  0.18486381  0.38194317    -0.74100
O1428       O  0.89019982  0.15851358  0.31689247    -0.73900
O1429       O  0.78572775  0.08087115  0.35771742    -0.73400
O1430       O  0.92283455  0.19911856  0.35668219    -0.74100
O1431       O  0.80829502  0.11715822  0.38229059    -0.73700
O1432       O  0.84000797  0.10439543  0.32099848    -0.74300
O1433       O  0.77061738  0.16635786  0.31955628    -0.73700
O1434       O  0.89901354  0.23889594  0.32327171    -0.74500
O1435       O  0.76848037  0.11230268  0.31907395    -0.73800
O1436       O  0.84712573  0.24127585  0.32441208    -0.74300
O1437       O  0.79027619  0.20840596  0.36017983    -0.74200
O1438       O  0.81597369  0.19539914  0.38408966    -0.74000
C1439       C  0.91928339  0.19555111  0.37434087     0.77800
C1440       C  0.87070801  0.12457977  0.31311500     0.78300
C1441       C  0.78870770  0.08560806  0.37533364     0.77200
C1442       C  0.75733740  0.13391454  0.31325169     0.77600
C1443       C  0.88045852  0.25474533  0.31937363     0.78700
C1444       C  0.79599996  0.20799273  0.37767077     0.77800
Zn1445     Zn  0.54913157  0.02950683  0.00598635     1.49700
Zn1446     Zn  0.99562832  0.50050388  0.04003776     1.49400
Zn1447     Zn  0.96962473  0.02509602  0.00343050     1.49100
Zn1448     Zn  0.97566860  0.45124798  0.00369661     1.49500
O1449       O  0.99734233  0.50165374  0.01305745    -1.84700
O1450       O  0.58346272  0.04675154  0.02829086    -0.74100
O1451       O  0.96925510  0.02534414  0.04943122    -0.73900
O1452       O  0.50306760  0.06766908  0.98652976    -0.73400
O1453       O  0.54538390  0.02384719  0.05209412    -0.74100
O1454       O  0.55810646  0.07208623  0.98952567    -0.73700
O1455       O  0.94993934  0.04329684  0.02476134    -0.74300
O1456       O  0.93476700  0.44067993  0.98547271    -0.73700
O1457       O  0.96830685  0.44966100  0.04948843    -0.74500
O1458       O  0.92690909  0.48942473  0.98710033    -0.73800
O1459       O  0.95498650  0.41373003  0.02467772    -0.74300
O1460       O  0.51307977  0.44380049  0.98990336    -0.74200
O1461       O  0.56329256  0.49832486  0.99087664    -0.74000
C1462       C  0.57787674  0.04149766  0.04576111     0.77800
C1463       C  0.95260806  0.04101465  0.04245599     0.78300
C1464       C  0.53702663  0.08274816  0.98232476     0.77200
C1465       C  0.91778539  0.45769073  0.98068322     0.77600
C1466       C  0.95385224  0.41805038  0.04220261     0.78700
C1467       C  0.54658074  0.46500314  0.98574325     0.77800
C1468       C  0.57577011  0.03826602  0.23778340    -0.11300
C1469       C  0.58239047  0.02075927  0.25304193     0.04200
C1470       C  0.61382872  0.03990058  0.26391736    -0.11900
C1471       C  0.63933069  0.07633865  0.25987045     0.19000
C1472       C  0.63377157  0.09371759  0.24434507    -0.08900
C1473       C  0.60201130  0.07474933  0.23351936    -0.01900
H1474       H  0.61852256  0.02623752  0.27566332     0.05500
C1475       C  0.67153948  0.09497999  0.27215832     0.21000
H1476       H  0.59747079  0.08877908  0.22192146     0.10700
C1477       C  0.69936193  0.08579045  0.27079132    -0.15200
C1478       C  0.72785458  0.09867067  0.28385780     0.03700
C1479       C  0.72861632  0.12111901  0.29870005    -0.10600
C1480       C  0.70129867  0.13129490  0.29964635    -0.00600
C1481       C  0.67262160  0.11805107  0.28661431    -0.05700
H1482       H  0.69845760  0.06788771  0.25969627     0.06700
H1483       H  0.70153435  0.14851968  0.31092432     0.10100
Br1484     Br  0.66890033  0.14289809  0.23736086    -0.05400
Br1485     Br  0.55151705  0.47048991  0.25951709    -0.02400
Br1486     Br  0.76539049  0.08555541  0.28019776     0.00500
Br1487     Br  0.63427790  0.13010596  0.28972467    -0.03900
C1488       C  0.89678086  0.28808916  0.30755642    -0.11300
C1489       C  0.93454192  0.31435189  0.30802239     0.04200
C1490       C  0.94860733  0.34377445  0.29537066    -0.11900
C1491       C  0.92559801  0.34744702  0.28223632     0.19000
C1492       C  0.88807424  0.32142078  0.28178863    -0.08900
C1493       C  0.87392116  0.29233414  0.29448678    -0.01900
H1494       H  0.97755944  0.36386997  0.29576480     0.05500
C1495       C  0.94100937  0.37793661  0.26868793     0.21000
H1496       H  0.84503340  0.27216103  0.29366603     0.10700
C1497       C  0.96195805  0.37681537  0.25382155    -0.15200
C1498       C  0.97556978  0.40438626  0.24020137     0.03700
C1499       C  0.96706899  0.43316775  0.24107095    -0.10600
C1500       C  0.94673190  0.43446824  0.25628012    -0.00600
C1501       C  0.93402597  0.40740333  0.27009665    -0.05700
H1502       H  0.96827348  0.35467418  0.25301049     0.06700
H1503       H  0.94090650  0.45688624  0.25748985     0.10100
Br1504     Br  0.85555821  0.32347513  0.26336518    -0.05400
Br1505     Br  0.96786899  0.31243181  0.32597386    -0.02400
Br1506     Br  0.51001525  0.40377720  0.22284907     0.00500
Br1507     Br  0.90823472  0.41233982  0.29093302    -0.03900
C1508       C  0.88413438  0.10825405  0.29928583    -0.11300
C1509       C  0.89745436  0.12505275  0.28178170     0.04200
C1510       C  0.91161209  0.10969470  0.26932456    -0.11900
C1511       C  0.91271281  0.07774919  0.27406108     0.19000
C1512       C  0.89895133  0.06063326  0.29139554    -0.08900
C1513       C  0.88433853  0.07569278  0.30378274    -0.01900
H1514       H  0.92217600  0.12289960  0.25596990     0.05500
C1515       C  0.93080119  0.06428713  0.26131062     0.21000
H1516       H  0.87426326  0.06265209  0.31721712     0.10700
C1517       C  0.96917014  0.08204733  0.26117541    -0.15200
C1518       C  0.98761069  0.06981541  0.24963951     0.03700
C1519       C  0.96752055  0.03951345  0.23788820    -0.10600
C1520       C  0.92906499  0.02221899  0.23771809    -0.00600
C1521       C  0.91060284  0.03438425  0.24936629    -0.05700
H1522       H  0.98479878  0.10541455  0.27017964     0.06700
H1523       H  0.91342275  0.49894443  0.22867623     0.10100
Br1524     Br  0.90147248  0.01792632  0.29907271    -0.05400
Br1525     Br  0.89568316  0.16809138  0.27389964    -0.02400
Br1526     Br  0.54008227  0.09662060  0.24991093     0.00500
Br1527     Br  0.85802524  0.50959407  0.24856399    -0.03900
C1528       C  0.93603260  0.38616205  0.05472983    -0.11300
C1529       C  0.91323891  0.38541382  0.06933852     0.04200
C1530       C  0.90035669  0.35718546  0.08252087    -0.11900
C1531       C  0.90978429  0.32947368  0.08142772     0.19000
C1532       C  0.93126208  0.32928599  0.06642096    -0.08900
C1533       C  0.94425792  0.35760678  0.05318102    -0.01900
H1534       H  0.88278953  0.35675453  0.09367783     0.05500
C1535       C  0.89422715  0.29957043  0.09530032     0.21000
H1536       H  0.96161444  0.35785661  0.04196487     0.10700
C1537       C  0.85676603  0.27445412  0.09427458    -0.15200
C1538       C  0.84042770  0.24532919  0.10684883     0.03700
C1539       C  0.86148958  0.24154476  0.12132311    -0.10600
C1540       C  0.89891532  0.26789155  0.12281487    -0.00600
C1541       C  0.91550016  0.29634501  0.10970630    -0.05700
H1542       H  0.84021786  0.27720412  0.08334728     0.06700
H1543       H  0.91577911  0.26506259  0.13351660     0.10100
Br1544     Br  0.94297729  0.29074181  0.06331882    -0.05400
Br1545     Br  0.89751941  0.42133493  0.07149855    -0.02400
Br1546     Br  0.78907802  0.21272695  0.10337344     0.00500
Br1547     Br  0.96732589  0.32918091  0.11149483    -0.03900
C1548       C  0.60925217  0.05496042  0.05912092    -0.11300
C1549       C  0.64562435  0.08146848  0.05428516     0.04200
C1550       C  0.67386861  0.09221484  0.06747288    -0.11900
C1551       C  0.66680148  0.07758722  0.08558415     0.19000
C1552       C  0.63078029  0.05168393  0.09057322    -0.08900
C1553       C  0.60252298  0.04041143  0.07739776    -0.01900
H1554       H  0.70148529  0.11290846  0.06373150     0.05500
C1555       C  0.69696443  0.09218840  0.09940294     0.21000
H1556       H  0.57507909  0.02005493  0.08155936     0.10700
C1557       C  0.69753878  0.11604239  0.11315861    -0.15200
C1558       C  0.72749274  0.13384561  0.12522949     0.03700
C1559       C  0.75782255  0.12790219  0.12355623    -0.10600
C1560       C  0.75663073  0.10312953  0.11008803    -0.00600
C1561       C  0.72646745  0.08517892  0.09812581    -0.05700
H1562       H  0.67503449  0.12180987  0.11406663     0.06700
H1563       H  0.77942057  0.09787744  0.10880593     0.10100
Br1564     Br  0.61892604  0.03088035  0.11519015    -0.05400
Br1565     Br  0.65896763  0.10612145  0.03054180    -0.02400
Br1566     Br  0.72611298  0.16825377  0.14221703     0.00500
Br1567     Br  0.72656289  0.05114919  0.08038684    -0.03900
C1568       C  0.86574616  0.13545531  0.11897100    -0.11300
C1569       C  0.88881656  0.15468041  0.10384713     0.04200
C1570       C  0.89874995  0.13627011  0.09100031    -0.11900
C1571       C  0.88633597  0.09876045  0.09291335     0.19000
C1572       C  0.86351341  0.07936176  0.10800677    -0.08900
C1573       C  0.85313784  0.09768348  0.12081725    -0.01900
H1574       H  0.91710506  0.15151037  0.07967292     0.05500
C1575       C  0.90096381  0.08172283  0.08008762     0.21000
H1576       H  0.83490121  0.08234977  0.13215568     0.10700
C1577       C  0.93014641  0.07713712  0.08628599    -0.15200
C1578       C  0.94767992  0.06463402  0.07427383     0.03700
C1579       C  0.93575526  0.05606858  0.05543385    -0.10600
C1580       C  0.90631012  0.06079399  0.04927847    -0.00600
C1581       C  0.88899029  0.07357356  0.06144815    -0.05700
H1582       H  0.93997279  0.08427174  0.10051995     0.06700
H1583       H  0.89644680  0.05418850  0.03503735     0.10100
Br1584     Br  0.84565926  0.02791202  0.11144211    -0.05400
Br1585     Br  0.90998435  0.20637167  0.10040539    -0.02400
Br1586     Br  0.98900890  0.06235183  0.08472064     0.00500
Br1587     Br  0.84882411  0.07910917  0.05224837    -0.03900
C1588       C  0.87760568  0.13830600  0.16088317    -0.11300
C1589       C  0.86196468  0.10853495  0.17356976     0.04200
C1590       C  0.88242831  0.09229619  0.18005822    -0.11900
C1591       C  0.91858888  0.10490091  0.17413934     0.19000
C1592       C  0.93453521  0.13496777  0.16172708    -0.08900
C1593       C  0.91426417  0.15152102  0.15539397    -0.01900
H1594       H  0.86976082  0.06911945  0.18954147     0.05500
C1595       C  0.93861673  0.08569518  0.18084516     0.21000
H1596       H  0.92679650  0.17409137  0.14555069     0.10700
C1597       C  0.92752816  0.04983352  0.17476892    -0.15200
C1598       C  0.94349245  0.02963167  0.18214709     0.03700
C1599       C  0.97116767  0.04526642  0.19596825    -0.10600
C1600       C  0.98365296  0.08200386  0.20106076    -0.00600
C1601       C  0.96721260  0.10177637  0.19404826    -0.05700
H1602       H  0.90560720  0.03712337  0.16457478     0.06700
H1603       H  0.00543914  0.09501122  0.21127199     0.10100
Br1604     Br  0.98299862  0.15276745  0.15203522    -0.05400
Br1605     Br  0.81199195  0.08645536  0.18141606    -0.02400
Br1606     Br  0.92456675  0.48031737  0.17361034     0.00500
Br1607     Br  0.98264557  0.14942793  0.20427553    -0.03900
C1608       C  0.76110902  0.12356485  0.16572978    -0.11300
C1609       C  0.74917134  0.13769962  0.18030223     0.04200
C1610       C  0.71297936  0.11733134  0.18691116    -0.11900
C1611       C  0.68864856  0.08260859  0.17952814     0.19000
C1612       C  0.70178765  0.06712469  0.16638324    -0.08900
C1613       C  0.73780506  0.08720413  0.15995373    -0.01900
H1614       H  0.70338181  0.12913898  0.19738828     0.05500
C1615       C  0.64942733  0.06347406  0.18508749     0.21000
H1616       H  0.74691820  0.07517549  0.14935866     0.10700
C1617       C  0.62627156  0.07673684  0.17870797    -0.15200
C1618       C  0.58945846  0.06022786  0.18437780     0.03700
C1619       C  0.57514222  0.02955053  0.19641249    -0.10600
C1620       C  0.59784448  0.01499516  0.20175130    -0.00600
C1621       C  0.63483161  0.03222676  0.19665601    -0.05700
H1622       H  0.63722598  0.10074662  0.16975711     0.06700
H1623       H  0.58748733  0.99184099  0.21127290     0.10100
Br1624     Br  0.67072364  0.01997396  0.15549341    -0.05400
Br1625     Br  0.77940442  0.18572102  0.19039314    -0.02400
Br1626     Br  0.56133033  0.08301830  0.17695728     0.00500
Br1627     Br  0.66523786  0.01444235  0.20743471    -0.03900
C1628       C  0.86439202  0.24348304  0.16374390    -0.11300
C1629       C  0.85045644  0.26797817  0.16169095     0.04200
C1630       C  0.86962185  0.30335734  0.16898724    -0.11900
C1631       C  0.90233055  0.31512638  0.17896939     0.19000
C1632       C  0.91456340  0.28966643  0.18265818    -0.08900
C1633       C  0.89585661  0.25429449  0.17484014    -0.01900
H1634       H  0.85902580  0.32204526  0.16669007     0.05500
C1635       C  0.92209515  0.35378846  0.18562648     0.21000
H1636       H  0.90650511  0.23561895  0.17697238     0.10700
C1637       C  0.90382769  0.36597990  0.19751761    -0.15200
C1638       C  0.92076251  0.40234702  0.20365698     0.03700
C1639       C  0.95737981  0.42712435  0.19854481    -0.10600
C1640       C  0.97431603  0.41601539  0.18521836    -0.00600
C1641       C  0.95701925  0.37965996  0.17878578    -0.05700
H1642       H  0.87606073  0.34711380  0.20194678     0.06700
H1643       H  0.00193084  0.43502876  0.18064728     0.10100
Br1644     Br  0.95577131  0.30154092  0.19870630    -0.05400
Br1645     Br  0.80482357  0.25485912  0.14956410    -0.02400
Br1646     Br  0.89166407  0.41724226  0.21791900     0.00500
Br1647     Br  0.98195801  0.36693662  0.16045939    -0.03900
C1648       C  0.74195118  0.36478261  0.90036257    -0.11300
C1649       C  0.76504543  0.40291410  0.90244272     0.04200
C1650       C  0.79510195  0.41635916  0.91461590    -0.11900
C1651       C  0.80282802  0.39243512  0.92493886     0.19000
C1652       C  0.78055792  0.35430350  0.92246972    -0.08900
C1653       C  0.75028033  0.34080052  0.91033986    -0.01900
H1654       H  0.81187428  0.44571330  0.91653622     0.05500
C1655       C  0.83216980  0.40800624  0.93931600     0.21000
H1656       H  0.73243660  0.31143807  0.90913058     0.10700
C1657       C  0.82642430  0.42330805  0.95547294    -0.15200
C1658       C  0.85376852  0.43941071  0.96918860     0.03700
C1659       C  0.88768165  0.44044729  0.96682584    -0.10600
C1660       C  0.89323267  0.42479328  0.95072122    -0.00600
C1661       C  0.86600814  0.40903744  0.93693124    -0.05700
H1662       H  0.80041778  0.42256117  0.95744435     0.06700
H1663       H  0.91924628  0.42561641  0.94863939     0.10100
Br1664     Br  0.78890679  0.31969385  0.93629110    -0.05400
Br1665     Br  0.75523563  0.43809950  0.89052919    -0.02400
Br1666     Br  0.84255117  0.45751277  0.99132035     0.00500
Br1667     Br  0.87681815  0.39082520  0.91472116    -0.03900
C1668       C  0.55253676  0.11265113  0.96832907    -0.11300
C1669       C  0.53366972  0.11094762  0.95161064     0.04200
C1670       C  0.55015045  0.13889746  0.93828479    -0.11900
C1671       C  0.58526389  0.16887058  0.94126919     0.19000
C1672       C  0.60405526  0.17078411  0.95799099    -0.08900
C1673       C  0.58788866  0.14252011  0.97119920    -0.01900
H1674       H  0.53537386  0.13740951  0.92553843     0.05500
C1675       C  0.59989489  0.19958003  0.92771882     0.21000
H1676       H  0.60269827  0.14426883  0.98396890     0.10700
C1677       C  0.58156392  0.21979479  0.92573609    -0.15200
C1678       C  0.59500368  0.25025349  0.91392581     0.03700
C1679       C  0.62796654  0.26136201  0.90404670    -0.10600
C1680       C  0.64550647  0.24026025  0.90538384    -0.00600
C1681       C  0.63140513  0.20916301  0.91691598    -0.05700
H1682       H  0.55677357  0.21201722  0.93361104     0.06700
H1683       H  0.67023141  0.24805420  0.89744733     0.10100
Br1684     Br  0.65065307  0.21250548  0.96398894    -0.05400
Br1685     Br  0.48624210  0.07037027  0.94566240    -0.02400
Br1686     Br  0.56640276  0.27482449  0.91174995     0.00500
Br1687     Br  0.65520808  0.18001027  0.91695290    -0.03900
C1688       C  0.64429310  0.37502667  0.91329408    -0.11300
C1689       C  0.63073774  0.35943971  0.93134112     0.04200
C1690       C  0.61623269  0.37561309  0.94304583    -0.11900
C1691       C  0.61810938  0.40878713  0.93833841     0.19000
C1692       C  0.63714346  0.42750997  0.92229161    -0.08900
C1693       C  0.64978822  0.41056696  0.90995632    -0.01900
H1694       H  0.60388792  0.36255058  0.95620278     0.05500
C1695       C  0.60002209  0.42323741  0.95046240     0.21000
H1696       H  0.66452096  0.42572708  0.89782043     0.10700
C1697       C  0.62106426  0.45169272  0.96287478    -0.15200
C1698       C  0.60442507  0.46558914  0.97470160     0.03700
C1699       C  0.56585113  0.45070225  0.97416379    -0.10600
C1700       C  0.54494044  0.42166333  0.96186462    -0.00600
C1701       C  0.56169854  0.40795814  0.95007700    -0.05700
H1702       H  0.65055531  0.46297193  0.96341264     0.06700
H1703       H  0.51540953  0.40991865  0.96113987     0.10100
Br1704     Br  0.64655755  0.47619590  0.91682166    -0.05400
Br1705     Br  0.63306928  0.31931734  0.94323164    -0.02400
Br1706     Br  0.63601891  0.00344736  0.99173844     0.00500
Br1707     Br  0.53129063  0.36889130  0.93334857    -0.03900
C1708       C  0.52488516  0.45897715  0.83356715    -0.11300
C1709       C  0.51212106  0.42119668  0.83085857     0.04200
C1710       C  0.52937638  0.40397395  0.84000965    -0.11900
C1711       C  0.55802593  0.42315088  0.85284212     0.19000
C1712       C  0.56732165  0.45963585  0.85726874    -0.08900
C1713       C  0.55093190  0.47718168  0.84761406    -0.01900
H1714       H  0.52092535  0.37570477  0.83671930     0.05500
C1715       C  0.58009788  0.40614863  0.85991093     0.21000
H1716       H  0.55988705  0.50572590  0.85047401     0.10700
C1717       C  0.61802781  0.42454846  0.85671252    -0.15200
C1718       C  0.64026834  0.41018934  0.86285024     0.03700
C1719       C  0.62461197  0.37525922  0.87150262    -0.10600
C1720       C  0.58648180  0.35656225  0.87456431    -0.00600
C1721       C  0.56438621  0.37181862  0.86913550    -0.05700
H1722       H  0.63073180  0.45101075  0.84977362     0.06700
H1723       H  0.57392425  0.33029865  0.88165626     0.10100
Br1724     Br  0.60233767  0.48707606  0.87628825    -0.05400
Br1725     Br  0.46988729  0.39138091  0.81571573    -0.02400
Br1726     Br  0.69187949  0.44292128  0.86156588     0.00500
Br1727     Br  0.51349075  0.34585342  0.87581110    -0.03900
C1728       C  0.53217811  0.07590310  0.83034731    -0.11300
C1729       C  0.56984743  0.09783227  0.83433508     0.04200
C1730       C  0.58357329  0.13352807  0.84123453    -0.11900
C1731       C  0.56078978  0.14920092  0.84334809     0.19000
C1732       C  0.52290674  0.12702329  0.83928587    -0.08900
C1733       C  0.50879883  0.09012750  0.83414339    -0.01900
H1734       H  0.61260067  0.14961452  0.84436430     0.05500
C1735       C  0.57775094  0.18871986  0.84914281     0.21000
H1736       H  0.47975934  0.07359109  0.83115368     0.10700
C1737       C  0.61045971  0.21538513  0.84059198    -0.15200
C1738       C  0.63020228  0.25153504  0.84746718     0.03700
C1739       C  0.61618833  0.26263992  0.86244644    -0.10600
C1740       C  0.58122526  0.23711884  0.86910322    -0.00600
C1741       C  0.56385700  0.20013859  0.86399105    -0.05700
H1742       H  0.62188084  0.20752211  0.82914788     0.06700
H1743       H  0.56859432  0.24504908  0.87960980     0.10100
Br1744     Br  0.49014767  0.14674509  0.83709225    -0.05400
Br1745     Br  0.60394254  0.08070851  0.83023151    -0.02400
Br1746     Br  0.67721198  0.28300322  0.83671800     0.00500
Br1747     Br  0.52620211  0.16630951  0.88052198    -0.03900
C1748       C  0.73347454  0.36454169  0.85820114    -0.11300
C1749       C  0.74235556  0.39227241  0.84475193     0.04200
C1750       C  0.77895450  0.41412759  0.83914221    -0.11900
C1751       C  0.80587490  0.40399859  0.84307032     0.19000
C1752       C  0.79421382  0.37069073  0.85309062    -0.08900
C1753       C  0.75920819  0.35258782  0.86116757    -0.01900
H1754       H  0.78575482  0.43875641  0.83133485     0.05500
C1755       C  0.84517478  0.42789965  0.83674373     0.21000
H1756       H  0.75197686  0.32885874  0.86995507     0.10700
C1757       C  0.87423744  0.43195297  0.84835314    -0.15200
C1758       C  0.91069111  0.44885613  0.84203041     0.03700
C1759       C  0.92028576  0.46812306  0.82474679    -0.10600
C1760       C  0.89185999  0.46973703  0.81484451    -0.00600
C1761       C  0.85482381  0.44717533  0.81951532    -0.05700
H1762       H  0.86842566  0.41993313  0.86218103     0.06700
H1763       H  0.89800274  0.48595332  0.80221146     0.10100
Br1764     Br  0.82313983  0.34668579  0.85561139    -0.05400
Br1765     Br  0.70594846  0.39533698  0.82978587    -0.02400
Br1766     Br  0.94328670  0.43955421  0.85715914     0.00500
Br1767     Br  0.82009469  0.44000360  0.80005120    -0.03900
C1768       C  0.93506019  0.46550356  0.78207211    -0.11300
C1769       C  0.93437427  0.48224994  0.76491414     0.04200
C1770       C  0.90511295  0.46403398  0.75257033    -0.11900
C1771       C  0.87529588  0.42985796  0.75702909     0.19000
C1772       C  0.87699340  0.41167493  0.77332887    -0.08900
C1773       C  0.90728630  0.42911021  0.78535332    -0.01900
H1774       H  0.90470588  0.47753785  0.73967490     0.05500
C1775       C  0.84258336  0.41506938  0.74468860     0.21000
H1776       H  0.90804069  0.41495888  0.79791853     0.10700
C1777       C  0.83018172  0.38117119  0.73579220    -0.15200
C1778       C  0.80029746  0.36762262  0.72346225     0.03700
C1779       C  0.78332575  0.38870217  0.71941320    -0.10600
C1780       C  0.79544799  0.42234694  0.72828166    -0.00600
C1781       C  0.82469686  0.43561321  0.74088768    -0.05700
H1782       H  0.84369130  0.36519254  0.73847612     0.06700
H1783       H  0.78166489  0.43809135  0.72560973     0.10100
Br1784     Br  0.83747477  0.36475704  0.78077464    -0.05400
Br1785     Br  0.97010409  0.03055990  0.75717385    -0.02400
Br1786     Br  0.78221378  0.31950259  0.71324215     0.00500
Br1787     Br  0.83784489  0.48131740  0.75295788    -0.03900
C1788       C  0.54368820  0.07526381  0.78874062    -0.11300
C1789       C  0.53048919  0.09968936  0.78440590     0.04200
C1790       C  0.54981497  0.12853191  0.77192216    -0.11900
C1791       C  0.58144816  0.13285744  0.76313047     0.19000
C1792       C  0.59474903  0.10870790  0.76739980    -0.08900
C1793       C  0.57590323  0.08020499  0.78019778    -0.01900
H1794       H  0.53913071  0.14669532  0.76832648     0.05500
C1795       C  0.59868992  0.16170206  0.74882807     0.21000
H1796       H  0.58579187  0.06111960  0.78308769     0.10700
C1797       C  0.62606271  0.19657992  0.75419742    -0.15200
C1798       C  0.63972758  0.22585906  0.74156583     0.03700
C1799       C  0.62514069  0.22048108  0.72315339    -0.10600
C1800       C  0.59896960  0.18485050  0.71762499    -0.00600
C1801       C  0.58576096  0.15559858  0.73031215    -0.05700
H1802       H  0.63637000  0.20116384  0.76841155     0.06700
H1803       H  0.58779465  0.17987067  0.70359146     0.10100
Br1804     Br  0.63726549  0.11260743  0.75534060    -0.05400
Br1805     Br  0.98362017  0.09220520  0.79237454    -0.02400
Br1806     Br  0.67884846  0.27181905  0.75061333     0.00500
Br1807     Br  0.54920623  0.10788867  0.72204253    -0.03900
C1808       C  0.53404400  0.46178794  0.79077857    -0.11300
C1809       C  0.57048009  0.46850440  0.79215527     0.04200
C1810       C  0.58279119  0.45059479  0.78008547    -0.11900
C1811       C  0.55953493  0.42653448  0.76632434     0.19000
C1812       C  0.52316277  0.41959483  0.76503834    -0.08900
C1813       C  0.51087547  0.43735947  0.77705533    -0.01900
H1814       H  0.61105852  0.45657701  0.78093026     0.05500
C1815       C  0.57428776  0.41102139  0.75252524     0.21000
H1816       H  0.98295579  0.43220166  0.77559502     0.10700
C1817       C  0.57705361  0.37990754  0.75713032    -0.15200
C1818       C  0.59075726  0.36462584  0.74424262     0.03700
C1819       C  0.60227631  0.38080173  0.72634093    -0.10600
C1820       C  0.59870629  0.41157171  0.72172168    -0.00600
C1821       C  0.58508725  0.42677974  0.73465746    -0.05700
H1822       H  0.56823860  0.36730441  0.77075788     0.06700
H1823       H  0.60750396  0.42451983  0.70817005     0.10100
Br1824     Br  0.48957607  0.38670710  0.74676752    -0.05400
Br1825     Br  0.60572781  0.00453170  0.80862893    -0.02400
Br1826     Br  0.59110107  0.32060000  0.75169618     0.00500
Br1827     Br  0.58259517  0.46977918  0.72756515    -0.03900
C1828       C  0.70174562  0.29736523  0.45201643    -0.11300
C1829       C  0.72939612  0.31690947  0.43879072     0.04200
C1830       C  0.74113438  0.29827294  0.42713050    -0.11900
C1831       C  0.72552921  0.26012374  0.42822142     0.19000
C1832       C  0.69769404  0.24030543  0.44133393    -0.08900
C1833       C  0.68611486  0.25906424  0.45319883    -0.01900
H1834       H  0.76295198  0.31369498  0.41724892     0.05500
C1835       C  0.74095156  0.24270114  0.41619176     0.21000
H1836       H  0.66470856  0.24377125  0.46327333     0.10700
C1837       C  0.77609771  0.24843882  0.42040744    -0.15200
C1838       C  0.79474625  0.23791884  0.40797930     0.03700
C1839       C  0.77794772  0.22092160  0.39093702    -0.10600
C1840       C  0.74247222  0.21484262  0.38684709    -0.00600
C1841       C  0.72399239  0.22567347  0.39930070    -0.05700
H1842       H  0.78966599  0.26251879  0.43316035     0.06700
H1843       H  0.72904583  0.20162492  0.37391487     0.10100
Br1844     Br  0.67526317  0.18803922  0.44366788    -0.05400
Br1845     Br  0.75404816  0.36921872  0.43684433    -0.02400
Br1846     Br  0.84425567  0.25076737  0.41445937     0.00500
Br1847     Br  0.67651949  0.21833739  0.39231592    -0.03900
C1848       C  0.95103976  0.20383827  0.38674262    -0.11300
C1849       C  0.98809246  0.22537167  0.38116259     0.04200
C1850       C  0.51609739  0.23678147  0.39454649    -0.11900
C1851       C  0.50806111  0.22632383  0.41331865     0.19000
C1852       C  0.97173422  0.20213013  0.41854808    -0.08900
C1853       C  0.94366766  0.19121019  0.40536572    -0.01900
H1854       H  0.54420525  0.25516710  0.39043416     0.05500
C1855       C  0.53700232  0.24451001  0.42754341     0.21000
H1856       H  0.91573919  0.17342496  0.40992482     0.10700
C1857       C  0.53455781  0.26927862  0.43973407    -0.15200
C1858       C  0.56274488  0.28983116  0.45236508     0.03700
C1859       C  0.59398809  0.28531822  0.45307877    -0.10600
C1860       C  0.59616898  0.26028630  0.44089467    -0.00600
C1861       C  0.56797143  0.23982324  0.42826168    -0.05700
H1862       H  0.51116038  0.27369959  0.43887222     0.06700
H1863       H  0.62010548  0.25677788  0.44112596     0.10100
Br1864     Br  0.95920543  0.18395319  0.44365554    -0.05400
Br1865     Br  0.00288647  0.24191923  0.35599460    -0.02400
Br1866     Br  0.55870952  0.32677554  0.46610477     0.00500
Br1867     Br  0.57287434  0.20578587  0.41239067    -0.03900
C1868       C  0.77011586  0.05395758  0.38811162    -0.11300
C1869       C  0.76102851  0.05792178  0.40666420     0.04200
C1870       C  0.74671061  0.02784546  0.41876456    -0.11900
C1871       C  0.74082977  0.49368502  0.41272529     0.19000
C1872       C  0.74841150  0.48922151  0.39413975    -0.08900
C1873       C  0.76298999  0.01925497  0.38199660    -0.01900
H1874       H  0.73990416  0.03101204  0.43295433     0.05500
C1875       C  0.72553617  0.46266854  0.42587232     0.21000
H1876       H  0.76968090  0.01561617  0.36787101     0.10700
C1877       C  0.68931721  0.43491935  0.42341305    -0.15200
C1878       C  0.67382041  0.40462544  0.43530730     0.03700
C1879       C  0.69443767  0.40223718  0.45044743    -0.10600
C1880       C  0.73085240  0.43049943  0.45291967    -0.00600
C1881       C  0.74651669  0.46041840  0.44068161    -0.05700
H1882       H  0.67310267  0.43675938  0.41202172     0.06700
H1883       H  0.74760146  0.42868608  0.46401526     0.10100
Br1884     Br  0.74055889  0.44293570  0.38497441    -0.05400
Br1885     Br  0.76561695  0.10277000  0.41634157    -0.02400
Br1886     Br  0.62409697  0.36878901  0.43005253     0.00500
Br1887     Br  0.79716687  0.49642275  0.44389351    -0.03900
C1888       C  0.80245722  0.20741910  0.57051972    -0.11300
C1889       C  0.82201216  0.23059796  0.58563227     0.04200
C1890       C  0.80541039  0.24517510  0.59701919    -0.11900
C1891       C  0.76957009  0.23786113  0.59358331     0.19000
C1892       C  0.75024235  0.21598600  0.57820248    -0.08900
C1893       C  0.76644211  0.20047950  0.56700562    -0.01900
H1894       H  0.82061892  0.26245042  0.60868904     0.05500
C1895       C  0.75274795  0.25249573  0.60667555     0.21000
H1896       H  0.75071386  0.18268885  0.55561107     0.10700
C1897       C  0.75598990  0.28699882  0.60333962    -0.15200
C1898       C  0.74184681  0.30222902  0.61602138     0.03700
C1899       C  0.72390103  0.28265844  0.63237146    -0.10600
C1900       C  0.72059033  0.24799519  0.63555781    -0.00600
C1901       C  0.73521811  0.23312578  0.62301195    -0.05700
H1902       H  0.76965309  0.30214890  0.59083861     0.06700
H1903       H  0.70714534  0.23266446  0.64805338     0.10100
Br1904     Br  0.70173858  0.20664773  0.57214251    -0.05400
Br1905     Br  0.87205016  0.24565296  0.59124399    -0.02400
Br1906     Br  0.74618599  0.34884168  0.60971255     0.00500
Br1907     Br  0.73137731  0.18657990  0.62888140    -0.03900
C1908       C  0.90411793  0.19558776  0.57239039    -0.11300
C1909       C  0.90638422  0.17709366  0.58853681     0.04200
C1910       C  0.93669888  0.19417708  0.60038998    -0.11900
C1911       C  0.96462561  0.22990038  0.59687369     0.19000
C1912       C  0.96248418  0.24882176  0.58108594    -0.08900
C1913       C  0.93259731  0.23154568  0.56887896    -0.01900
H1914       H  0.93836535  0.17962734  0.61260425     0.05500
C1915       C  0.99562312  0.24666303  0.61003879     0.21000
H1916       H  0.93083979  0.24684672  0.55704297     0.10700
C1917       C  0.52428114  0.23875204  0.60830478    -0.15200
C1918       C  0.55313832  0.25231924  0.62120921     0.03700
C1919       C  0.55331468  0.27403911  0.63629154    -0.10600
C1920       C  0.52465833  0.28223814  0.63780232    -0.00600
C1921       C  0.99579765  0.26849565  0.62488880    -0.05700
H1922       H  0.52417618  0.22196979  0.59682669     0.06700
H1923       H  0.52447211  0.29902314  0.64919853     0.10100
Br1924     Br  0.99892177  0.29867456  0.57625622    -0.05400
Br1925     Br  0.87030288  0.12823288  0.59531313    -0.02400
Br1926     Br  0.59241984  0.24210197  0.61665100     0.00500
Br1927     Br  0.95676540  0.27945693  0.62820531    -0.03900
C1928       C  0.78906218  0.09457101  0.57186560    -0.11300
C1929       C  0.79484459  0.06401940  0.57198646     0.04200
C1930       C  0.77695762  0.03603969  0.58514387    -0.11900
C1931       C  0.75382993  0.03803068  0.59856348     0.19000
C1932       C  0.74820342  0.06849500  0.59862042    -0.08900
C1933       C  0.76578668  0.09639666  0.58536651    -0.01900
H1934       H  0.78222520  0.01315107  0.58538730     0.05500
C1935       C  0.73862134  0.00944436  0.61323748     0.21000
H1936       H  0.76161405  0.11996618  0.58572585     0.10700
C1937       C  0.76252785  0.50851533  0.62675455    -0.15200
C1938       C  0.75031259  0.48005285  0.63987158     0.03700
C1939       C  0.71334979  0.45167982  0.63960515    -0.10600
C1940       C  0.68913338  0.45348222  0.62644614    -0.00600
C1941       C  0.70157327  0.48182850  0.61320480    -0.05700
H1942       H  0.79106744  0.02982176  0.62689338     0.06700
H1943       H  0.66076643  0.43184984  0.62588372     0.10100
Br1944     Br  0.71854383  0.07421895  0.61713405    -0.05400
Br1945     Br  0.83061622  0.06092270  0.55673649    -0.02400
Br1946     Br  0.78535321  0.48213715  0.65797654     0.00500
Br1947     Br  0.66777298  0.48035322  0.59453082    -0.03900
C1948       C  0.80672635  0.21173242  0.52819297    -0.11300
C1949       C  0.77745842  0.19582217  0.51520464     0.04200
C1950       C  0.76110662  0.21600460  0.50844237    -0.11900
C1951       C  0.77381252  0.25234841  0.51403414     0.19000
C1952       C  0.80463393  0.26914033  0.52588613    -0.08900
C1953       C  0.82087316  0.24899423  0.53274067    -0.01900
H1954       H  0.73789170  0.20305624  0.49898899     0.05500
C1955       C  0.75430655  0.27206637  0.50752298     0.21000
H1956       H  0.84361623  0.26200365  0.54246653     0.10700
C1957       C  0.72132399  0.26499054  0.51604486    -0.15200
C1958       C  0.70091655  0.28126489  0.50939029     0.03700
C1959       C  0.71358771  0.30542106  0.49386522    -0.10600
C1960       C  0.74830449  0.31461882  0.48652016    -0.00600
C1961       C  0.76782984  0.29732655  0.49269537    -0.05700
H1962       H  0.71092045  0.24593164  0.52767171     0.06700
H1963       H  0.75962864  0.33417059  0.47517429     0.10100
Br1964     Br  0.82415531  0.31892745  0.53389143    -0.05400
Br1965     Br  0.75707977  0.14633548  0.50679606    -0.02400
Br1966     Br  0.65551725  0.26759515  0.52172800     0.00500
Br1967     Br  0.81138264  0.30686108  0.47948115    -0.03900
C1968       C  0.78807799  0.09161674  0.52897138    -0.11300
C1969       C  0.75036406  0.06718865  0.53216158     0.04200
C1970       C  0.73360407  0.03142744  0.52500746    -0.11900
C1971       C  0.75314346  0.01935237  0.51394558     0.19000
C1972       C  0.78952910  0.04519794  0.50889799    -0.08900
C1973       C  0.80665973  0.08082892  0.51644065    -0.01900
H1974       H  0.70501213  0.01284000  0.52814396     0.05500
C1975       C  0.73399815  0.48055985  0.50698016     0.21000
H1976       H  0.83519756  0.09953455  0.51324731     0.10700
C1977       C  0.70160998  0.46815063  0.49648670    -0.15200
C1978       C  0.68251315  0.43217479  0.48966867     0.03700
C1979       C  0.69615111  0.40765674  0.49272927    -0.10600
C1980       C  0.72736226  0.41926245  0.50412024    -0.00600
C1981       C  0.74593256  0.45509269  0.51143920    -0.05700
H1982       H  0.69104192  0.48665566  0.49354854     0.06700
H1983       H  0.73787742  0.40068352  0.50696797     0.10100
Br1984     Br  0.81678029  0.03367316  0.49142787    -0.05400
Br1985     Br  0.71955425  0.08177449  0.54506396    -0.02400
Br1986     Br  0.63713320  0.41776633  0.47685755     0.00500
Br1987     Br  0.78626080  0.46717572  0.52815888    -0.03900
C1988       C  0.59365369  0.28790522  0.49562698    -0.11300
C1989       C  0.57142172  0.24951554  0.49376885     0.04200
C1990       C  0.53523721  0.23172642  0.50041991    -0.11900
C1991       C  0.52046694  0.25124957  0.50943166     0.19000
C1992       C  0.54414641  0.28895007  0.51309889    -0.08900
C1993       C  0.58035855  0.30681954  0.50629982    -0.01900
H1994       H  0.51833959  0.20245593  0.49831497     0.05500
C1995       C  0.98122904  0.23108287  0.51581208     0.21000
H1996       H  0.59732205  0.33613313  0.50826329     0.10700
C1997       C  0.96997171  0.20089385  0.52784586    -0.15200
C1998       C  0.93385590  0.18142322  0.53448080     0.03700
C1999       C  0.90813858  0.19306912  0.53003710    -0.10600
C2000       C  0.91851950  0.22152024  0.51686879    -0.00600
C2001       C  0.95433579  0.23982303  0.50943281    -0.05700
H2002       H  0.48946824  0.19227861  0.53211172     0.06700
H2003       H  0.89899486  0.23012310  0.51265410     0.10100
Br2004     Br  0.52865194  0.31753032  0.52724646    -0.05400
Br2005     Br  0.58958455  0.21984246  0.48285518    -0.02400
Br2006     Br  0.92110070  0.13810224  0.54887429     0.00500
Br2007     Br  0.96444898  0.27479866  0.48977131    -0.03900
C2008       C  0.83263504  0.66517873  0.56768020     0.46100
H2009       H  0.83172509  0.66537639  0.58316065    -0.02900
C2010       C  0.83415727  0.66492944  0.53135335     0.46200
H2011       H  0.83496174  0.66498922  0.51586333    -0.02900
C2012       C  0.87130037  0.67929924  0.55984653    -0.16600
C2013       C  0.80938738  0.62685321  0.55930854    -0.16400
C2014       C  0.81838445  0.68914476  0.55877970    -0.16700
C2015       C  0.87261651  0.67908737  0.54060803    -0.16700
C2016       C  0.80935126  0.62625077  0.54006869    -0.16300
C2017       C  0.81906088  0.68936786  0.53951788    -0.16600
C2018       C  0.66398780  0.83101246  0.45569756     0.46100
H2019       H  0.66305365  0.82956452  0.44019927    -0.02900
C2020       C  0.66696395  0.83390880  0.49202396     0.46200
H2021       H  0.66835486  0.83576435  0.50746750    -0.02900
C2022       C  0.62655549  0.80838942  0.46486513    -0.16600
C2023       C  0.68769904  0.81627417  0.46413669    -0.16400
C2024       C  0.67935262  0.86992692  0.46324613    -0.16700
C2025       C  0.62749110  0.80920857  0.48408181    -0.16700
C2026       C  0.69022389  0.81788443  0.48334390    -0.16300
C2027       C  0.68089892  0.87191912  0.48244267    -0.16600
Zn2028     Zn  0.71530168  0.86107352  0.66929443     1.49700
Zn2029     Zn  0.66818186  0.83377347  0.70670168     1.49400
Zn2030     Zn  0.63628617  0.85664855  0.67254735     1.49100
Zn2031     Zn  0.64331031  0.78251133  0.67088317     1.49500
O2032       O  0.66567509  0.83351057  0.67963397    -1.83500
O2033       O  0.75346622  0.87605446  0.68992820    -0.74100
O2034       O  0.63982715  0.85480466  0.71889698    -0.73900
O2035       O  0.66680335  0.90270093  0.65730438    -0.73400
O2036       O  0.71964710  0.86065712  0.71573856    -0.74100
O2037       O  0.72142434  0.90612392  0.65565334    -0.73700
O2038       O  0.61554324  0.86997578  0.69522915    -0.74300
O2039       O  0.59871700  0.77117655  0.65527033    -0.73700
O2040       O  0.64868366  0.78354627  0.71664960    -0.74500
O2041       O  0.59482075  0.82234454  0.65581203    -0.73800
O2042       O  0.63057889  0.74605655  0.69244400    -0.74300
O2043       O  0.67719839  0.77532438  0.65351603    -0.74200
O2044       O  0.72536823  0.83100646  0.65055345    -0.74000
C2045       C  0.75050119  0.87443404  0.70765245     0.77800
C2046       C  0.61980905  0.86755407  0.71275609     0.78300
C2047       C  0.69998940  0.91875443  0.65173317     0.77200
C2048       C  0.58374137  0.78986697  0.64995854     0.77600
C2049       C  0.63544677  0.75154649  0.70999707     0.78700
C2050       C  0.70801567  0.79720338  0.64615036     0.77800
C2051       C  0.50459042  0.50376427  0.79130931     0.46100
H2052       H  0.50949324  0.50441441  0.77608198    -0.02900
C2053       C  0.49488900  0.50227810  0.82714611     0.46200
H2054       H  0.49202820  0.50316246  0.84242405    -0.02900
C2055       C  0.96396135  0.98509510  0.79669285    -0.16600
C2056       C  0.51979015  0.98227953  0.80173159    -0.16400
C2057       C  0.52244330  0.54184341  0.80019872    -0.16700
C2058       C  0.95809211  0.98443153  0.81589338    -0.16700
C2059       C  0.51442749  0.98067545  0.82074069    -0.16300
C2060       C  0.51779917  0.54146880  0.81910552    -0.16600
C2061       C  0.66010626  0.83689047  0.86614596     0.46100
H2062       H  0.65462864  0.83815048  0.85110574    -0.02900
C2063       C  0.67086380  0.83245844  0.90163910     0.46200
H2064       H  0.67727989  0.83048527  0.91634881    -0.02900
C2065       C  0.64717169  0.85879747  0.87885809    -0.16600
C2066       C  0.63944668  0.79689237  0.87379542    -0.16400
C2067       C  0.70132585  0.85141799  0.87138341    -0.16700
C2068       C  0.65330891  0.85634648  0.89782270    -0.16700
C2069       C  0.64498587  0.79536084  0.89265843    -0.16300
C2070       C  0.70611126  0.84944930  0.89030825    -0.16600
C2071       C  0.82902779  0.67001219  0.12515681     0.46100
H2072       H  0.82686429  0.66976714  0.10968150    -0.02900
C2073       C  0.83425217  0.66977611  0.16142435     0.46200
H2074       H  0.83678046  0.66972278  0.17685683    -0.02900
C2075       C  0.79195458  0.64804922  0.13485835    -0.16600
C2076       C  0.85236640  0.65349985  0.13217770    -0.16400
C2077       C  0.84619609  0.70837828  0.13357379    -0.16700
C2078       C  0.79416613  0.64717738  0.15404243    -0.16700
C2079       C  0.85549738  0.65315019  0.15131409    -0.16300
C2080       C  0.84888843  0.70872544  0.15275022    -0.16600
C2081       C  0.00133543  0.00058431  0.19884715     0.46100
H2082       H  0.00072341  0.99925488  0.18337081    -0.02900
C2083       C  0.00378055  0.00384610  0.23523083     0.46200
H2084       H  0.00484510  0.00566303  0.25071662    -0.02900
C2085       C  0.98487321  0.52364671  0.20703471    -0.16600
C2086       C  0.97955741  0.96255150  0.20861501    -0.16400
C2087       C  0.54072932  0.51775110  0.20721828    -0.16700
C2088       C  0.98590469  0.52438812  0.22623366    -0.16700
C2089       C  0.98231744  0.96467298  0.22780183    -0.16300
C2090       C  0.54153955  0.51972619  0.22637791    -0.16600
Zn2091     Zn  0.83776670  0.66743999  0.37246904     1.49700
Zn2092     Zn  0.88592379  0.69095591  0.33606065     1.49400
Zn2093     Zn  0.80825336  0.61739652  0.33656334     1.49100
Zn2094     Zn  0.81131953  0.69527326  0.33793067     1.49500
O2095       O  0.83581003  0.66783818  0.34555561    -1.83500
O2096       O  0.88829264  0.68486392  0.38194316    -0.74100
O2097       O  0.89019972  0.65851353  0.31689244    -0.73900
O2098       O  0.78572760  0.58087114  0.35771751    -0.73400
O2099       O  0.92283457  0.69911842  0.35668219    -0.74100
O2100       O  0.80829492  0.61715824  0.38229066    -0.73700
O2101       O  0.84000796  0.60439534  0.32099862    -0.74300
O2102       O  0.77061740  0.66635780  0.31955628    -0.73700
O2103       O  0.89901346  0.73889593  0.32327173    -0.74500
O2104       O  0.76848026  0.61230256  0.31907400    -0.73800
O2105       O  0.84712570  0.74127595  0.32441208    -0.74300
O2106       O  0.79027630  0.70840608  0.36017984    -0.74200
O2107       O  0.81597369  0.69539918  0.38408970    -0.74000
C2108       C  0.91928338  0.69555110  0.37434087     0.77800
C2109       C  0.87070791  0.62457969  0.31311504     0.78300
C2110       C  0.78870759  0.58560807  0.37533373     0.77200
C2111       C  0.75733733  0.63391444  0.31325172     0.77600
C2112       C  0.88045847  0.75474538  0.31937364     0.78700
C2113       C  0.79600003  0.70799285  0.37767078     0.77800
Zn2114     Zn  0.54913152  0.52950674  0.00598633     1.49700
Zn2115     Zn  0.99562829  0.00050379  0.04003782     1.49400
Zn2116     Zn  0.96962478  0.52509609  0.00343050     1.49100
Zn2117     Zn  0.97566867  0.95124796  0.00369665     1.49500
O2118       O  0.99734234  0.00165375  0.01305749    -1.84700
O2119       O  0.58346273  0.54675139  0.02829082    -0.74100
O2120       O  0.96925521  0.52534430  0.04943120    -0.73900
O2121       O  0.50306758  0.56766917  0.98652979    -0.73400
O2122       O  0.54538386  0.52384710  0.05209405    -0.74100
O2123       O  0.55810636  0.57208613  0.98952565    -0.73700
O2124       O  0.94993926  0.54329680  0.02476132    -0.74300
O2125       O  0.93476715  0.94067993  0.98547274    -0.73700
O2126       O  0.96830705  0.94966091  0.04948847    -0.74500
O2127       O  0.92690907  0.98942464  0.98710036    -0.73800
O2128       O  0.95498653  0.91372997  0.02467775    -0.74300
O2129       O  0.51307986  0.94380050  0.98990343    -0.74200
O2130       O  0.56329267  0.99832486  0.99087674    -0.74000
C2131       C  0.57787671  0.54149753  0.04576107     0.77800
C2132       C  0.95260805  0.54101469  0.04245597     0.78300
C2133       C  0.53702659  0.58274813  0.98232476     0.77200
C2134       C  0.91778546  0.95769065  0.98068325     0.77600
C2135       C  0.95385237  0.91805029  0.04220264     0.78700
C2136       C  0.54658085  0.96500313  0.98574335     0.77800
C2137       C  0.57577006  0.53826608  0.23778342    -0.11300
C2138       C  0.58239048  0.52075929  0.25304191     0.04200
C2139       C  0.61382868  0.53990059  0.26391735    -0.11900
C2140       C  0.63933062  0.57633864  0.25987046     0.19000
C2141       C  0.63377152  0.59371764  0.24434510    -0.08900
C2142       C  0.60201124  0.57474941  0.23351940    -0.01900
H2143       H  0.61852250  0.52623753  0.27566332     0.05500
C2144       C  0.67153936  0.59497992  0.27215836     0.21000
H2145       H  0.59747069  0.58877920  0.22192152     0.10700
C2146       C  0.69936177  0.58579032  0.27079137    -0.15200
C2147       C  0.72785444  0.59867055  0.28385784     0.03700
C2148       C  0.72861620  0.62111889  0.29870009    -0.10600
C2149       C  0.70129858  0.63129485  0.29964639    -0.00600
C2150       C  0.67262151  0.61805104  0.28661435    -0.05700
H2151       H  0.69845740  0.56788757  0.25969632     0.06700
H2152       H  0.70153433  0.64851968  0.31092434     0.10100
Br2153     Br  0.66890025  0.64289822  0.23736099    -0.05400
Br2154     Br  0.55151691  0.97048986  0.25951710    -0.02400
Br2155     Br  0.76539031  0.58555529  0.28019777     0.00500
Br2156     Br  0.63427790  0.63010610  0.28972467    -0.03900
C2157       C  0.89678083  0.78808922  0.30755643    -0.11300
C2158       C  0.93454184  0.81435202  0.30802248     0.04200
C2159       C  0.94860727  0.84377465  0.29537079    -0.11900
C2160       C  0.92559798  0.84744720  0.28223641     0.19000
C2161       C  0.88807423  0.82142091  0.28178868    -0.08900
C2162       C  0.87392114  0.79233420  0.29448680    -0.01900
H2163       H  0.97755937  0.86387019  0.29576497     0.05500
C2164       C  0.94100935  0.87793672  0.26868798     0.21000
H2165       H  0.84503343  0.77216107  0.29366602     0.10700
C2166       C  0.96195795  0.87681534  0.25382158    -0.15200
C2167       C  0.97556977  0.90438622  0.24020138     0.03700
C2168       C  0.96706909  0.93316777  0.24107095    -0.10600
C2169       C  0.94673204  0.93446837  0.25628012    -0.00600
C2170       C  0.93402603  0.90740347  0.27009665    -0.05700
H2171       H  0.96827326  0.85467408  0.25301056     0.06700
H2172       H  0.94090672  0.95688642  0.25748982     0.10100
Br2173     Br  0.85555829  0.82347502  0.26336507    -0.05400
Br2174     Br  0.96786876  0.81243198  0.32597403    -0.02400
Br2175     Br  0.51001507  0.90377708  0.22284895     0.00500
Br2176     Br  0.90823487  0.91234002  0.29093303    -0.03900
C2177       C  0.88413426  0.60825396  0.29928586    -0.11300
C2178       C  0.89745396  0.62505246  0.28178164     0.04200
C2179       C  0.91161160  0.60969430  0.26932451    -0.11900
C2180       C  0.91271271  0.57774905  0.27406115     0.19000
C2181       C  0.89895154  0.56063338  0.29139570    -0.08900
C2182       C  0.88433872  0.57569290  0.30378287    -0.01900
H2183       H  0.92217519  0.62289894  0.25596974     0.05500
C2184       C  0.93080108  0.56428693  0.26131073     0.21000
H2185       H  0.87426372  0.56265240  0.31721731     0.10700
C2186       C  0.96917005  0.58204730  0.26117544    -0.15200
C2187       C  0.98761063  0.56981543  0.24963953     0.03700
C2188       C  0.96752052  0.53951345  0.23788824    -0.10600
C2189       C  0.92906495  0.52221884  0.23771818    -0.00600
C2190       C  0.91060273  0.53438394  0.24936645    -0.05700
H2191       H  0.98479868  0.60541459  0.27017961     0.06700
H2192       H  0.91342275  0.99894461  0.22867612     0.10100
Br2193     Br  0.90147305  0.51792673  0.29907300    -0.05400
Br2194     Br  0.89568259  0.66809096  0.27389951    -0.02400
Br2195     Br  0.54008221  0.59662076  0.24991093     0.00500
Br2196     Br  0.85802539  0.00959468  0.24856382    -0.03900
C2197       C  0.93603274  0.88616196  0.05472987    -0.11300
C2198       C  0.91323906  0.88541374  0.06933857     0.04200
C2199       C  0.90035688  0.85718538  0.08252092    -0.11900
C2200       C  0.90978447  0.82947360  0.08142777     0.19000
C2201       C  0.93126229  0.82928590  0.06642102    -0.08900
C2202       C  0.94425803  0.85760665  0.05318106    -0.01900
H2203       H  0.88278969  0.85675441  0.09367788     0.05500
C2204       C  0.89422724  0.79957031  0.09530035     0.21000
H2205       H  0.96161444  0.85785642  0.04196486     0.10700
C2206       C  0.85676610  0.77445402  0.09427458    -0.15200
C2207       C  0.84042773  0.74532908  0.10684883     0.03700
C2208       C  0.86148958  0.74154461  0.12132311    -0.10600
C2209       C  0.89891534  0.76789133  0.12281486    -0.00600
C2210       C  0.91550022  0.79634482  0.10970632    -0.05700
H2211       H  0.84021797  0.77720406  0.08334727     0.06700
H2212       H  0.91577913  0.76506229  0.13351656     0.10100
Br2213     Br  0.94297721  0.79074148  0.06331882    -0.05400
Br2214     Br  0.89751948  0.92133479  0.07149855    -0.02400
Br2215     Br  0.78907805  0.71272684  0.10337344     0.00500
Br2216     Br  0.96732601  0.82918051  0.11149483    -0.03900
C2217       C  0.60925209  0.55496031  0.05912090    -0.11300
C2218       C  0.64562431  0.58146817  0.05428511     0.04200
C2219       C  0.67386856  0.59221454  0.06747284    -0.11900
C2220       C  0.66680139  0.57758708  0.08558414     0.19000
C2221       C  0.63078017  0.55168393  0.09057323    -0.08900
C2222       C  0.60252283  0.54041147  0.07739778    -0.01900
H2223       H  0.70148527  0.61290800  0.06373145     0.05500
C2224       C  0.69696438  0.59218828  0.09940293     0.21000
H2225       H  0.57507891  0.52005510  0.08155939     0.10700
C2226       C  0.69753870  0.61604226  0.11315863    -0.15200
C2227       C  0.72749263  0.63384545  0.12522954     0.03700
C2228       C  0.75782243  0.62790201  0.12355629    -0.10600
C2229       C  0.75663059  0.60312927  0.11008812    -0.00600
C2230       C  0.72646739  0.58517876  0.09812583    -0.05700
H2231       H  0.67503444  0.62180974  0.11406662     0.06700
H2232       H  0.77942038  0.59787708  0.10880606     0.10100
Br2233     Br  0.61892594  0.53088048  0.11519017    -0.05400
Br2234     Br  0.65896768  0.60612081  0.03054167    -0.02400
Br2235     Br  0.72611280  0.66825357  0.14221713     0.00500
Br2236     Br  0.72656293  0.55114909  0.08038684    -0.03900
C2237       C  0.86574593  0.63545505  0.11897098    -0.11300
C2238       C  0.88881615  0.65468008  0.10384706     0.04200
C2239       C  0.89874950  0.63626975  0.09100023    -0.11900
C2240       C  0.88633564  0.59876010  0.09291334     0.19000
C2241       C  0.86351321  0.57936145  0.10800681    -0.08900
C2242       C  0.85313772  0.59768325  0.12081729    -0.01900
H2243       H  0.91710449  0.65150996  0.07967281     0.05500
C2244       C  0.90096361  0.58172255  0.08008762     0.21000
H2245       H  0.83490126  0.58234963  0.13215579     0.10700
C2246       C  0.93014657  0.57713738  0.08628593    -0.15200
C2247       C  0.94768019  0.56463443  0.07427374     0.03700
C2248       C  0.93575522  0.55606855  0.05543383    -0.10600
C2249       C  0.90630971  0.56079338  0.04927852    -0.00600
C2250       C  0.88898985  0.57357288  0.06144820    -0.05700
H2251       H  0.93997318  0.58427236  0.10051983     0.06700
H2252       H  0.89644613  0.55418752  0.03503746     0.10100
Br2253     Br  0.84565923  0.52791174  0.11144236    -0.05400
Br2254     Br  0.90998380  0.70637129  0.10040525    -0.02400
Br2255     Br  0.98900994  0.56235336  0.08472035     0.00500
Br2256     Br  0.84882319  0.57910771  0.05224850    -0.03900
C2257       C  0.87760565  0.63830595  0.16088319    -0.11300
C2258       C  0.86196479  0.60853505  0.17356987     0.04200
C2259       C  0.88242846  0.59229631  0.18005830    -0.11900
C2260       C  0.91858898  0.60490102  0.17413935     0.19000
C2261       C  0.93453521  0.63496784  0.16172707    -0.08900
C2262       C  0.91426411  0.65152101  0.15539396    -0.01900
H2263       H  0.86976108  0.56911962  0.18954156     0.05500
C2264       C  0.93861687  0.58569533  0.18084514     0.21000
H2265       H  0.92679629  0.67409125  0.14555062     0.10700
C2266       C  0.92752829  0.54983369  0.17476890    -0.15200
C2267       C  0.94349255  0.52963182  0.18214708     0.03700
C2268       C  0.97116769  0.54526652  0.19596828    -0.10600
C2269       C  0.98365296  0.58200396  0.20106081    -0.00600
C2270       C  0.96721266  0.60177649  0.19404828    -0.05700
H2271       H  0.90560734  0.53712356  0.16457476     0.06700
H2272       H  0.00543907  0.59501131  0.21127205     0.10100
Br2273     Br  0.98299848  0.65276738  0.15203508    -0.05400
Br2274     Br  0.81199210  0.58645549  0.18141622    -0.02400
Br2275     Br  0.92456678  0.98031725  0.17361033     0.00500
Br2276     Br  0.98264573  0.64942810  0.20427552    -0.03900
C2277       C  0.76110903  0.62356472  0.16572985    -0.11300
C2278       C  0.74917135  0.63769946  0.18030231     0.04200
C2279       C  0.71297935  0.61733121  0.18691123    -0.11900
C2280       C  0.68864855  0.58260845  0.17952822     0.19000
C2281       C  0.70178767  0.56712454  0.16638333    -0.08900
C2282       C  0.73780506  0.58720401  0.15995379    -0.01900
H2283       H  0.70338180  0.62913892  0.19738828     0.05500
C2284       C  0.64942728  0.56347399  0.18508753     0.21000
H2285       H  0.74691817  0.57517543  0.14935868     0.10700
C2286       C  0.62627156  0.57673684  0.17870805    -0.15200
C2287       C  0.58945851  0.56022797  0.18437790     0.03700
C2288       C  0.57514217  0.52955057  0.19641255    -0.10600
C2289       C  0.59784433  0.51499509  0.20175132    -0.00600
C2290       C  0.63483147  0.53222669  0.19665606    -0.05700
H2291       H  0.63722602  0.60074666  0.16975718     0.06700
H2292       H  0.58748709  0.49184085  0.21127288     0.10100
Br2293     Br  0.67072369  0.51997388  0.15549343    -0.05400
Br2294     Br  0.77940427  0.68572094  0.19039315    -0.02400
Br2295     Br  0.56133047  0.58301849  0.17695742     0.00500
Br2296     Br  0.66523767  0.51444222  0.20743473    -0.03900
C2297       C  0.86439194  0.74348291  0.16374392    -0.11300
C2298       C  0.85045641  0.76797806  0.16169093     0.04200
C2299       C  0.86962177  0.80335725  0.16898723    -0.11900
C2300       C  0.90233043  0.81512628  0.17896939     0.19000
C2301       C  0.91456325  0.78966634  0.18265820    -0.08900
C2302       C  0.89585646  0.75429435  0.17484022    -0.01900
H2303       H  0.85902574  0.82204516  0.16669005     0.05500
C2304       C  0.92209507  0.85378834  0.18562650     0.21000
H2305       H  0.90650495  0.73561883  0.17697248     0.10700
C2306       C  0.90382769  0.86597976  0.19751770    -0.15200
C2307       C  0.92076254  0.90234689  0.20365704     0.03700
C2308       C  0.95737979  0.92712426  0.19854480    -0.10600
C2309       C  0.97431589  0.91601530  0.18521829    -0.00600
C2310       C  0.95701910  0.87965985  0.17878573    -0.05700
H2311       H  0.87606076  0.84711368  0.20194689     0.06700
H2312       H  0.00193065  0.93502869  0.18064714     0.10100
Br2313     Br  0.95577131  0.80154107  0.19870619    -0.05400
Br2314     Br  0.80482358  0.75485900  0.14956409    -0.02400
Br2315     Br  0.89166409  0.91724217  0.21791903     0.00500
Br2316     Br  0.98195779  0.86693652  0.16045927    -0.03900
C2317       C  0.74195128  0.86478263  0.90036260    -0.11300
C2318       C  0.76504553  0.90291410  0.90244278     0.04200
C2319       C  0.79510196  0.91635912  0.91461598    -0.11900
C2320       C  0.80282801  0.89243507  0.92493893     0.19000
C2321       C  0.78055794  0.85430343  0.92246974    -0.08900
C2322       C  0.75028036  0.84080050  0.91033987    -0.01900
H2323       H  0.81187423  0.94571330  0.91653637     0.05500
C2324       C  0.83216979  0.90800618  0.93931606     0.21000
H2325       H  0.73243657  0.81143805  0.90913057     0.10700
C2326       C  0.82642438  0.92330808  0.95547298    -0.15200
C2327       C  0.85376861  0.93941064  0.96918864     0.03700
C2328       C  0.88768169  0.94044714  0.96682588    -0.10600
C2329       C  0.89323267  0.92479316  0.95072124    -0.00600
C2330       C  0.86600811  0.90903736  0.93693127    -0.05700
H2331       H  0.80041791  0.92256132  0.95744440     0.06700
H2332       H  0.91924628  0.92561629  0.94863939     0.10100
Br2333     Br  0.78890683  0.81969375  0.93629109    -0.05400
Br2334     Br  0.75523545  0.93809945  0.89052944    -0.02400
Br2335     Br  0.84255140  0.95751269  0.99132039     0.00500
Br2336     Br  0.87681798  0.89082509  0.91472116    -0.03900
C2337       C  0.55253671  0.61265110  0.96832910    -0.11300
C2338       C  0.53366965  0.61094767  0.95161069     0.04200
C2339       C  0.55015039  0.63889753  0.93828484    -0.11900
C2340       C  0.58526382  0.66887067  0.94126927     0.19000
C2341       C  0.60405517  0.67078415  0.95799106    -0.08900
C2342       C  0.58788861  0.64252009  0.97119926    -0.01900
H2343       H  0.53537383  0.63740957  0.92553848     0.05500
C2344       C  0.59989488  0.69958017  0.92771890     0.21000
H2345       H  0.60269819  0.64426879  0.98396894     0.10700
C2346       C  0.58156390  0.71979493  0.92573613    -0.15200
C2347       C  0.59500368  0.75025363  0.91392583     0.03700
C2348       C  0.62796656  0.76136212  0.90404672    -0.10600
C2349       C  0.64550645  0.74026034  0.90538389    -0.00600
C2350       C  0.63140513  0.70916316  0.91691607    -0.05700
H2351       H  0.55677354  0.71201740  0.93361103     0.06700
H2352       H  0.67023132  0.74805421  0.89744735     0.10100
Br2353     Br  0.65065298  0.71250559  0.96398896    -0.05400
Br2354     Br  0.48624201  0.57037040  0.94566240    -0.02400
Br2355     Br  0.56640274  0.77482463  0.91174995     0.00500
Br2356     Br  0.65520802  0.68001040  0.91695291    -0.03900
C2357       C  0.64429322  0.87502673  0.91329414    -0.11300
C2358       C  0.63073785  0.85943973  0.93134117     0.04200
C2359       C  0.61623281  0.87561311  0.94304589    -0.11900
C2360       C  0.61810949  0.90878716  0.93833848     0.19000
C2361       C  0.63714364  0.92751007  0.92229170    -0.08900
C2362       C  0.64978839  0.91056705  0.90995641    -0.01900
H2363       H  0.60388807  0.86255057  0.95620285     0.05500
C2364       C  0.60002222  0.92323746  0.95046246     0.21000
H2365       H  0.66452112  0.92572717  0.89782052     0.10700
C2366       C  0.62106438  0.95169278  0.96287483    -0.15200
C2367       C  0.60442518  0.96558918  0.97470165     0.03700
C2368       C  0.56585122  0.95070224  0.97416388    -0.10600
C2369       C  0.54494057  0.92166336  0.96186468    -0.00600
C2370       C  0.56169868  0.90795826  0.95007704    -0.05700
H2371       H  0.65055543  0.96297197  0.96341269     0.06700
H2372       H  0.51540963  0.90991862  0.96113993     0.10100
Br2373     Br  0.64655771  0.97619600  0.91682169    -0.05400
Br2374     Br  0.63306933  0.81931726  0.94323164    -0.02400
Br2375     Br  0.63601885  0.50344750  0.99173830     0.00500
Br2376     Br  0.53129076  0.86889139  0.93334867    -0.03900
C2377       C  0.52488517  0.95897714  0.83356712    -0.11300
C2378       C  0.51212110  0.92119666  0.83085856     0.04200
C2379       C  0.52937645  0.90397399  0.84000965    -0.11900
C2380       C  0.55802605  0.92315098  0.85284209     0.19000
C2381       C  0.56732176  0.95963597  0.85726868    -0.08900
C2382       C  0.55093190  0.97718171  0.84761403    -0.01900
H2383       H  0.52092544  0.87570479  0.83671933     0.05500
C2384       C  0.58009799  0.90614873  0.85991093     0.21000
H2385       H  0.55988698  0.00572591  0.85047399     0.10700
C2386       C  0.61802794  0.92454853  0.85671252    -0.15200
C2387       C  0.64026848  0.91018944  0.86285025     0.03700
C2388       C  0.62461210  0.87525936  0.87150268    -0.10600
C2389       C  0.58648191  0.85656238  0.87456436    -0.00600
C2390       C  0.56438631  0.87181872  0.86913552    -0.05700
H2391       H  0.63073196  0.95101084  0.84977361     0.06700
H2392       H  0.57392436  0.83029880  0.88165630     0.10100
Br2393     Br  0.60233762  0.98707621  0.87628823    -0.05400
Br2394     Br  0.46988734  0.89138082  0.81571573    -0.02400
Br2395     Br  0.69187964  0.94292140  0.86156589     0.00500
Br2396     Br  0.51349082  0.84585336  0.87581108    -0.03900
C2397       C  0.53217811  0.57590315  0.83034735    -0.11300
C2398       C  0.56984741  0.59783230  0.83433516     0.04200
C2399       C  0.58357324  0.63352813  0.84123457    -0.11900
C2400       C  0.56078969  0.64920096  0.84334812     0.19000
C2401       C  0.52290664  0.62702326  0.83928598    -0.08900
C2402       C  0.50879876  0.59012748  0.83414348    -0.01900
H2403       H  0.61260061  0.64961461  0.84436430     0.05500
C2404       C  0.57775085  0.68871991  0.84914283     0.21000
H2405       H  0.47975929  0.57359107  0.83115381     0.10700
C2406       C  0.61045959  0.71538518  0.84059198    -0.15200
C2407       C  0.63020216  0.75153510  0.84746717     0.03700
C2408       C  0.61618829  0.76264003  0.86244644    -0.10600
C2409       C  0.58122521  0.73711892  0.86910324    -0.00600
C2410       C  0.56385699  0.70013862  0.86399110    -0.05700
H2411       H  0.62188075  0.70752218  0.82914788     0.06700
H2412       H  0.56859427  0.74504915  0.87960981     0.10100
Br2413     Br  0.49014748  0.64674499  0.83709239    -0.05400
Br2414     Br  0.60394265  0.58070868  0.83023152    -0.02400
Br2415     Br  0.67721185  0.78300316  0.83671799     0.00500
Br2416     Br  0.52620222  0.66630946  0.88052210    -0.03900
C2417       C  0.73347462  0.86454170  0.85820116    -0.11300
C2418       C  0.74235564  0.89227245  0.84475197     0.04200
C2419       C  0.77895457  0.91412765  0.83914228    -0.11900
C2420       C  0.80587500  0.90399872  0.84307042     0.19000
C2421       C  0.79421397  0.87069086  0.85309072    -0.08900
C2422       C  0.75920830  0.85258786  0.86116761    -0.01900
H2423       H  0.78575486  0.93875645  0.83133489     0.05500
C2424       C  0.84517484  0.92789978  0.83674381     0.21000
H2425       H  0.75197699  0.82885875  0.86995507     0.10700
C2426       C  0.87423753  0.93195311  0.84835321    -0.15200
C2427       C  0.91069120  0.94885633  0.84203048     0.03700
C2428       C  0.92028580  0.96812313  0.82474682    -0.10600
C2429       C  0.89186000  0.96973705  0.81484452    -0.00600
C2430       C  0.85482380  0.94717539  0.81951537    -0.05700
H2431       H  0.86842574  0.91993321  0.86218109     0.06700
H2432       H  0.89800273  0.98595321  0.80221146     0.10100
Br2433     Br  0.82313988  0.84668575  0.85561139    -0.05400
Br2434     Br  0.70594862  0.89533711  0.82978588    -0.02400
Br2435     Br  0.94328685  0.93955436  0.85715915     0.00500
Br2436     Br  0.82009457  0.94000351  0.80005123    -0.03900
C2437       C  0.93506019  0.96550341  0.78207213    -0.11300
C2438       C  0.93437423  0.98224975  0.76491415     0.04200
C2439       C  0.90511290  0.96403373  0.75257035    -0.11900
C2440       C  0.87529582  0.92985773  0.75702916     0.19000
C2441       C  0.87699334  0.91167481  0.77332898    -0.08900
C2442       C  0.90728630  0.92911008  0.78535337    -0.01900
H2443       H  0.90470582  0.97753757  0.73967490     0.05500
C2444       C  0.84258325  0.91506909  0.74468869     0.21000
H2445       H  0.90804075  0.91495876  0.79791858     0.10700
C2446       C  0.83018162  0.88117088  0.73579227    -0.15200
C2447       C  0.80029727  0.86762228  0.72346236     0.03700
C2448       C  0.78332552  0.88870180  0.71941337    -0.10600
C2449       C  0.79544783  0.92234661  0.72828181    -0.00600
C2450       C  0.82469673  0.93561289  0.74088782    -0.05700
H2451       H  0.84369125  0.86519227  0.73847615     0.06700
H2452       H  0.78166478  0.93809102  0.72560986     0.10100
Br2453     Br  0.83747479  0.86475693  0.78077478    -0.05400
Br2454     Br  0.97010425  0.53056007  0.75717384    -0.02400
Br2455     Br  0.78221347  0.81950220  0.71324229     0.00500
Br2456     Br  0.83784490  0.98131720  0.75295799    -0.03900
C2457       C  0.54368830  0.57526384  0.78874066    -0.11300
C2458       C  0.53048938  0.59968949  0.78440600     0.04200
C2459       C  0.54981519  0.62853205  0.77192226    -0.11900
C2460       C  0.58144834  0.63285751  0.76313055     0.19000
C2461       C  0.59474916  0.60870793  0.76739987    -0.08900
C2462       C  0.57590333  0.58020501  0.78019784    -0.01900
H2463       H  0.53913096  0.64669549  0.76832661     0.05500
C2464       C  0.59869009  0.66170209  0.74882811     0.21000
H2465       H  0.58579192  0.56111957  0.78308777     0.10700
C2466       C  0.62606284  0.69658001  0.75419743    -0.15200
C2467       C  0.63972768  0.72585912  0.74156582     0.03700
C2468       C  0.62514077  0.72048106  0.72315338    -0.10600
C2469       C  0.59896974  0.68485044  0.71762500    -0.00600
C2470       C  0.58576118  0.65559853  0.73031218    -0.05700
H2471       H  0.63637013  0.70116402  0.76841156     0.06700
H2472       H  0.58779471  0.67987056  0.70359149     0.10100
Br2473     Br  0.63726551  0.61260731  0.75534061    -0.05400
Br2474     Br  0.98362035  0.59220536  0.79237466    -0.02400
Br2475     Br  0.67884841  0.77181922  0.75061333     0.00500
Br2476     Br  0.54920630  0.60788858  0.72204266    -0.03900
C2477       C  0.53404395  0.96178784  0.79077852    -0.11300
C2478       C  0.57048002  0.96850423  0.79215523     0.04200
C2479       C  0.58279111  0.95059462  0.78008542    -0.11900
C2480       C  0.55953490  0.92653441  0.76632426     0.19000
C2481       C  0.52316275  0.91959478  0.76503828    -0.08900
C2482       C  0.51087542  0.93735937  0.77705528    -0.01900
H2483       H  0.61105846  0.95657679  0.78093021     0.05500
C2484       C  0.57428767  0.91102128  0.75252515     0.21000
H2485       H  0.98295568  0.93220159  0.77559500     0.10700
C2486       C  0.57705366  0.87990755  0.75713027    -0.15200
C2487       C  0.59075732  0.86462584  0.74424259     0.03700
C2488       C  0.60227625  0.88080164  0.72634087    -0.10600
C2489       C  0.59870603  0.91157147  0.72172157    -0.00600
C2490       C  0.58508698  0.92677950  0.73465733    -0.05700
H2491       H  0.56823878  0.86730454  0.77075786     0.06700
H2492       H  0.60750358  0.92451948  0.70816991     0.10100
Br2493     Br  0.48957606  0.88670696  0.74676750    -0.05400
Br2494     Br  0.60572775  0.50453183  0.80862904    -0.02400
Br2495     Br  0.59110128  0.82060014  0.75169630     0.00500
Br2496     Br  0.58259462  0.96977879  0.72756499    -0.03900
C2497       C  0.70174571  0.79736523  0.45201651    -0.11300
C2498       C  0.72939626  0.81690952  0.43879082     0.04200
C2499       C  0.74113442  0.79827296  0.42713057    -0.11900
C2500       C  0.72552921  0.76012375  0.42822146     0.19000
C2501       C  0.69769406  0.74030541  0.44133399    -0.08900
C2502       C  0.68611497  0.75906423  0.45319892    -0.01900
H2503       H  0.76295206  0.81369501  0.41724899     0.05500
C2504       C  0.74095160  0.74270117  0.41619182     0.21000
H2505       H  0.66470869  0.74377122  0.46327345     0.10700
C2506       C  0.77609768  0.74843876  0.42040754    -0.15200
C2507       C  0.79474626  0.73791885  0.40797938     0.03700
C2508       C  0.77794780  0.72092173  0.39093706    -0.10600
C2509       C  0.74247231  0.71484275  0.38684712    -0.00600
C2510       C  0.72399251  0.72567361  0.39930075    -0.05700
H2511       H  0.78966588  0.76251864  0.43316047     0.06700
H2512       H  0.72904591  0.70162505  0.37391492     0.10100
Br2513     Br  0.67526325  0.68803917  0.44366801    -0.05400
Br2514     Br  0.75404831  0.86921881  0.43684447    -0.02400
Br2515     Br  0.84425565  0.75076751  0.41445949     0.00500
Br2516     Br  0.67651963  0.71833754  0.39231603    -0.03900
C2517       C  0.95103971  0.70383825  0.38674264    -0.11300
C2518       C  0.98809245  0.72537119  0.38116256     0.04200
C2519       C  0.51609736  0.73678142  0.39454649    -0.11900
C2520       C  0.50806111  0.72632377  0.41331868     0.19000
C2521       C  0.97173412  0.70213062  0.41854820    -0.08900
C2522       C  0.94366756  0.69121062  0.40536583    -0.01900
H2523       H  0.54420519  0.75516704  0.39043414     0.05500
C2524       C  0.53700233  0.74450998  0.42754343     0.21000
H2525       H  0.91573905  0.67342568  0.40992496     0.10700
C2526       C  0.53455789  0.76927875  0.43973403    -0.15200
C2527       C  0.56274502  0.78983137  0.45236501     0.03700
C2528       C  0.59398813  0.78531829  0.45307877    -0.10600
C2529       C  0.59616895  0.76028622  0.44089474    -0.00600
C2530       C  0.56797136  0.73982310  0.42826177    -0.05700
H2531       H  0.51116050  0.77369974  0.43887215     0.06700
H2532       H  0.62010537  0.75677774  0.44112607     0.10100
Br2533     Br  0.95920531  0.68395420  0.44365577    -0.05400
Br2534     Br  0.00288664  0.74191799  0.35599447    -0.02400
Br2535     Br  0.55870982  0.82677594  0.46610463     0.00500
Br2536     Br  0.57287435  0.70578574  0.41239081    -0.03900
C2537       C  0.77011587  0.55395763  0.38811174    -0.11300
C2538       C  0.76102887  0.55792189  0.40666438     0.04200
C2539       C  0.74671094  0.52784557  0.41876472    -0.11900
C2540       C  0.74082984  0.99368500  0.41272522     0.19000
C2541       C  0.74841185  0.98922154  0.39413972    -0.08900
C2542       C  0.76298969  0.51925495  0.38199664    -0.01900
H2543       H  0.73990476  0.53101218  0.43295452     0.05500
C2544       C  0.72553624  0.96266850  0.42587227     0.21000
H2545       H  0.76968034  0.51561609  0.36787103     0.10700
C2546       C  0.68931735  0.93491919  0.42341292    -0.15200
C2547       C  0.67382052  0.90462529  0.43530720     0.03700
C2548       C  0.69443770  0.90223714  0.45044739    -0.10600
C2549       C  0.73085240  0.93049945  0.45291966    -0.00600
C2550       C  0.74651671  0.96041841  0.44068159    -0.05700
H2551       H  0.67310292  0.93675915  0.41202152     0.06700
H2552       H  0.74760140  0.92868612  0.46401529     0.10100
Br2553     Br  0.74055977  0.94293585  0.38497443    -0.05400
Br2554     Br  0.76561762  0.60277016  0.41634185    -0.02400
Br2555     Br  0.62409715  0.86878868  0.43005237     0.00500
Br2556     Br  0.79716682  0.99642290  0.44389353    -0.03900
C2557       C  0.80245722  0.70741899  0.57051968    -0.11300
C2558       C  0.82201223  0.73059793  0.58563221     0.04200
C2559       C  0.80541052  0.74517515  0.59701912    -0.11900
C2560       C  0.76957018  0.73786110  0.59358330     0.19000
C2561       C  0.75024239  0.71598592  0.57820249    -0.08900
C2562       C  0.76644212  0.70047941  0.56700562    -0.01900
H2563       H  0.82061915  0.76245056  0.60868894     0.05500
C2564       C  0.75274803  0.75249564  0.60667556     0.21000
H2565       H  0.75071381  0.68268876  0.55561106     0.10700
C2566       C  0.75599002  0.78699875  0.60333964    -0.15200
C2567       C  0.74184701  0.80222897  0.61602142     0.03700
C2568       C  0.72390117  0.78265839  0.63237149    -0.10600
C2569       C  0.72059038  0.74799510  0.63555782    -0.00600
C2570       C  0.73521812  0.73312565  0.62301195    -0.05700
H2571       H  0.76965322  0.80214881  0.59083862     0.06700
H2572       H  0.70714529  0.73266438  0.64805336     0.10100
Br2573     Br  0.70173862  0.70664763  0.57214252    -0.05400
Br2574     Br  0.87205022  0.74565286  0.59124386    -0.02400
Br2575     Br  0.74618630  0.84884165  0.60971266     0.00500
Br2576     Br  0.73137702  0.68657959  0.62888138    -0.03900
C2577       C  0.90411799  0.69558768  0.57239031    -0.11300
C2578       C  0.90638426  0.67709354  0.58853672     0.04200
C2579       C  0.93669895  0.69417692  0.60038988    -0.11900
C2580       C  0.96462574  0.72990020  0.59687360     0.19000
C2581       C  0.96248427  0.74882169  0.58108590    -0.08900
C2582       C  0.93259739  0.73154564  0.56887891    -0.01900
H2583       H  0.93836539  0.67962719  0.61260415     0.05500
C2584       C  0.99562320  0.74666284  0.61003874     0.21000
H2585       H  0.93083993  0.74684671  0.55704292     0.10700
C2586       C  0.52428134  0.73875222  0.60830464    -0.15200
C2587       C  0.55313851  0.75231939  0.62120908     0.03700
C2588       C  0.55331477  0.77403909  0.63629147    -0.10600
C2589       C  0.52465837  0.78223801  0.63780229    -0.00600
C2590       C  0.99579759  0.76849530  0.62488880    -0.05700
H2591       H  0.52417641  0.72197004  0.59682652     0.06700
H2592       H  0.52447208  0.79902290  0.64919856     0.10100
Br2593     Br  0.99892204  0.79867446  0.57625621    -0.05400
Br2594     Br  0.87030274  0.62823282  0.59531312    -0.02400
Br2595     Br  0.59242017  0.74210238  0.61665084     0.00500
Br2596     Br  0.95676516  0.77945626  0.62820544    -0.03900
C2597       C  0.78906221  0.59457098  0.57186557    -0.11300
C2598       C  0.79484452  0.56401933  0.57198648     0.04200
C2599       C  0.77695744  0.53603958  0.58514385    -0.11900
C2600       C  0.75382970  0.53803059  0.59856341     0.19000
C2601       C  0.74820335  0.56849501  0.59862035    -0.08900
C2602       C  0.76578675  0.59639671  0.58536648    -0.01900
H2603       H  0.78222500  0.51315095  0.58538729     0.05500
C2604       C  0.73862113  0.50944434  0.61323743     0.21000
H2605       H  0.76161421  0.61996626  0.58572583     0.10700
C2606       C  0.76252804  0.00851525  0.62675458    -0.15200
C2607       C  0.75031274  0.98005272  0.63987157     0.03700
C2608       C  0.71334992  0.95167972  0.63960515    -0.10600
C2609       C  0.68913356  0.95348215  0.62644611    -0.00600
C2610       C  0.70157347  0.98182850  0.61320480    -0.05700
H2611       H  0.79106726  0.52982187  0.62689331     0.06700
H2612       H  0.66076660  0.93184975  0.62588367     0.10100
Br2613     Br  0.71854376  0.57421909  0.61713392    -0.05400
Br2614     Br  0.83061612  0.56092258  0.55673659    -0.02400
Br2615     Br  0.78535330  0.98213703  0.65797656     0.00500
Br2616     Br  0.66777320  0.98035338  0.59453084    -0.03900
C2617       C  0.80672634  0.71173237  0.52819292    -0.11300
C2618       C  0.77745848  0.69582209  0.51520455     0.04200
C2619       C  0.76110667  0.71600452  0.50844227    -0.11900
C2620       C  0.77381244  0.75234828  0.51403410     0.19000
C2621       C  0.80463373  0.76914016  0.52588614    -0.08900
C2622       C  0.82087302  0.74899413  0.53274069    -0.01900
H2623       H  0.73789182  0.70305621  0.49898883     0.05500
C2624       C  0.75430652  0.77206628  0.50752295     0.21000
H2625       H  0.84361600  0.76200356  0.54246659     0.10700
C2626       C  0.72132407  0.76499062  0.51604491    -0.15200
C2627       C  0.70091672  0.78126507  0.50939034     0.03700
C2628       C  0.71358786  0.80542120  0.49386527    -0.10600
C2629       C  0.74830465  0.81461895  0.48652022    -0.00600
C2630       C  0.76782988  0.79732652  0.49269538    -0.05700
H2631       H  0.71092051  0.74593172  0.52767175     0.06700
H2632       H  0.75962885  0.83417075  0.47517439     0.10100
Br2633     Br  0.82415479  0.81892713  0.53389158    -0.05400
Br2634     Br  0.75708006  0.64633544  0.50679592    -0.02400
Br2635     Br  0.65551740  0.76759531  0.52172802     0.00500
Br2636     Br  0.81138267  0.80686097  0.47948116    -0.03900
C2637       C  0.78807799  0.59161668  0.52897131    -0.11300
C2638       C  0.75036405  0.56718864  0.53216151     0.04200
C2639       C  0.73360406  0.53142738  0.52500745    -0.11900
C2640       C  0.75314344  0.51935222  0.51394562     0.19000
C2641       C  0.78952912  0.54519771  0.50889804    -0.08900
C2642       C  0.80665977  0.58082875  0.51644065    -0.01900
H2643       H  0.70501213  0.51283994  0.52814394     0.05500
C2644       C  0.73399827  0.98056001  0.50698009     0.21000
H2645       H  0.83519763  0.59953439  0.51324731     0.10700
C2646       C  0.70161011  0.96815079  0.49648659    -0.15200
C2647       C  0.68251326  0.93217494  0.48966856     0.03700
C2648       C  0.69615123  0.90765689  0.49272919    -0.10600
C2649       C  0.72736236  0.91926261  0.50412019    -0.00600
C2650       C  0.74593270  0.95509285  0.51143914    -0.05700
H2651       H  0.69104205  0.98665580  0.49354844     0.06700
H2652       H  0.73787749  0.90068366  0.50696794     0.10100
Br2653     Br  0.81678019  0.53367280  0.49142789    -0.05400
Br2654     Br  0.71955425  0.58177462  0.54506381    -0.02400
Br2655     Br  0.63713323  0.91776651  0.47685743     0.00500
Br2656     Br  0.78626116  0.96717590  0.52815873    -0.03900
C2657       C  0.59365376  0.78790528  0.49562701    -0.11300
C2658       C  0.57142186  0.74951560  0.49376893     0.04200
C2659       C  0.53523730  0.73172646  0.50041995    -0.11900
C2660       C  0.52046696  0.75124962  0.50943163     0.19000
C2661       C  0.54414635  0.78895016  0.51309879    -0.08900
C2662       C  0.58035854  0.80681963  0.50629977    -0.01900
H2663       H  0.51833971  0.70245599  0.49831499     0.05500
C2664       C  0.98122910  0.73108292  0.51581198     0.21000
H2665       H  0.59732197  0.83613319  0.50826322     0.10700
C2666       C  0.96997179  0.70089385  0.52784573    -0.15200
C2667       C  0.93385598  0.68142318  0.53448071     0.03700
C2668       C  0.90813865  0.69306909  0.53003702    -0.10600
C2669       C  0.91851955  0.72152026  0.51686874    -0.00600
C2670       C  0.95433584  0.73982308  0.50943275    -0.05700
H2671       H  0.48946816  0.69227847  0.53211160     0.06700
H2672       H  0.89899491  0.73012314  0.51265407     0.10100
Br2673     Br  0.52865188  0.81753047  0.52724632    -0.05400
Br2674     Br  0.58958473  0.71984260  0.48285519    -0.02400
Br2675     Br  0.92110079  0.63810221  0.54887425     0.00500
Br2676     Br  0.96444912  0.77479882  0.48977130    -0.03900
loop_ 
_geom_bond_atom_site_label_1 
_geom_bond_atom_site_label_2 
_geom_bond_distance 
_geom_bond_site_symmetry_2 
_ccdc_geom_bond_type 
C1            H2   1.110       .  S
C1            C7   1.531       .  S
C1            C6   1.533       .  S
C1            C5   1.533       .  S
C3            H4   1.110       .  S
C3            C9   1.559       .  S
C3            C8   1.560       .  S
C3           C10   1.561       .  S
C5            C8   1.380       .  D
C5          C570   1.493       .  S
C6            C9   1.378       .  D
C6          C590   1.491       .  S
C7           C10   1.380       .  D
C7          C550   1.502       .  S
C8          C661   1.510       .  S
C9          C630   1.504       .  S
C10         C610   1.503       .  S
C11          H12   1.111       .  S
C11          C17   1.529       .  S
C11          C16   1.523       .  S
C11          C15   1.526       .  S
C13          H14   1.108       .  S
C13          C19   1.562       .  S
C13          C18   1.561       .  S
C13          C20   1.556       .  S
C15          C18   1.377       .  D
C15         C521   1.484       .  S
C16          C19   1.379       .  D
C16         C490   1.483       .  S
C17          C20   1.377       .  D
C17         C541   1.490       .  S
C18         C650   1.500       .  S
C19         C621   1.511       .  S
C20         C641   1.503       .  S
Zn21         O25   1.961       .  S
Zn21         O26   2.031       .  S
Zn21         O30   2.020       .  S
Zn21         O37   2.029       .  S
Zn22         O25   1.941       .  S
Zn22         O27   2.000       .  S
Zn22         O29   1.983       .  S
Zn22         O33   1.974       .  S
Zn23         O25   1.966       .  S
Zn23         O28   2.027       .  S
Zn23         O31   2.053       .  S
Zn23         O34   2.013       .  S
Zn24         O25   1.968       .  S
Zn24         O32   2.016       .  S
Zn24         O35   2.044       .  S
Zn24         O36   2.025       .  S
O26          C38   1.274       .  A
O27          C39   1.270       .  A
O28          C40   1.275       .  A
O29          C38   1.268       .  A
O30          C40   1.275       .  A
O31          C39   1.277       .  A
O32          C41   1.275       .  A
O33          C42   1.266       .  A
O34          C41   1.275       .  A
O35          C42   1.276       .  A
O36          C43   1.274       .  A
O37          C43   1.274       .  A
C38         C441   1.462       .  S
C39         C481   1.487       .  S
C40         C601   1.483       .  S
C41         C581   1.477       .  S
C42         C461   1.484       .  S
C43         C561   1.484       .  S
C44          H45   1.109       .  S
C44          C50   1.530       .  S
C44         C718   1.523   1_545  S
C44        C2055   1.533   1_445  S
C46          H47   1.104       .  S
C46          C53   1.546   1_655  S
C46         C721   1.561   1_645  S
C46        C2058   1.562   1_545  S
C48        C2051   1.533       .  S
C48          C51   1.396       .  D
C48         C430   1.500       .  S
C49         C713   1.523       .  S
C49          C52   1.377       .  D
C49         C470   1.492       .  S
C50          C53   1.368       .  D
C50         C450   1.481       .  S
C51        C2053   1.562       .  S
C51         C421   1.522       .  S
C52         C715   1.561   1_455  S
C52         C370   1.495       .  S
C53         C390   1.498       .  S
C54          H55   1.106       .  S
C54          C60   1.565       .  S
C54          C59   1.556       .  S
C54          C58   1.572       .  S
C56          H57   1.098       .  S
C56          C62   1.533       .  S
C56          C61   1.527       .  S
C56          C63   1.522       .  S
C58          C61   1.393       .  D
C58         C381   1.507       .  S
C59          C62   1.376       .  D
C59         C401   1.515       .  S
C60          C63   1.377       .  D
C60         C410   1.512       .  S
C61         C350   1.513       .  S
C62         C341   1.481       .  S
C63         C310   1.492       .  S
C64          H65   1.111       .  S
C64          C70   1.527       .  S
C64          C69   1.529       .  S
C64          C68   1.529       .  S
C66          H67   1.110       .  S
C66          C72   1.557       .  S
C66          C71   1.557       .  S
C66          C73   1.559       .  S
C68          C71   1.378       .  D
C68         C221   1.488       .  S
C69          C72   1.377       .  D
C69         C230   1.487       .  S
C70          C73   1.377       .  D
C70         C201   1.492       .  S
C71         C270   1.501       .  S
C72         C250   1.504       .  S
C73         C290   1.496       .  S
C74          H75   1.110       .  S
C74          C79   1.556       .  S
C74        C2087   1.556       .  S
C74         C747   1.555       .  S
C76          H77   1.111       .  S
C76          C82   1.528       .  S
C76         C750   1.528       .  S
C76        C2090   1.522       .  S
C78         C743   1.555       .  S
C78          C81   1.376       .  D
C78         C261   1.507       .  S
C79          C82   1.378       .  D
C79         C301   1.494       .  S
C80        C2081   1.556       .  S
C80          C83   1.374       .  D
C80         C281   1.493       .  S
C81         C745   1.528       .  S
C81         C181   1.478       .  S
C82         C161   1.488       .  S
C83        C2083   1.522       .  S
C83         C130   1.490       .  S
Zn84         O88   1.929       .  S
Zn84         O89   1.983       .  S
Zn84         O93   1.971       .  S
Zn84        O100   1.992       .  S
Zn85         O88   1.953       .  S
Zn85         O90   2.007       .  S
Zn85         O92   2.035       .  S
Zn85         O96   2.017       .  S
Zn86         O88   1.954       .  S
Zn86         O91   2.023       .  S
Zn86         O94   2.012       .  S
Zn86         O97   2.003       .  S
Zn87         O88   1.952       .  S
Zn87         O95   2.015       .  S
Zn87         O98   2.012       .  S
Zn87         O99   2.031       .  S
O89         C101   1.271       .  A
O90         C102   1.273       .  A
O91         C103   1.274       .  A
O92         C101   1.274       .  A
O93         C103   1.266       .  A
O94         C102   1.273       .  A
O95         C104   1.273       .  A
O96         C105   1.274       .  A
O97         C104   1.272       .  A
O98         C105   1.275       .  A
O99         C106   1.275       .  A
O100        C106   1.270       .  A
C101        C510   1.487       .  S
C102        C170   1.469       .  S
C103        C530   1.476       .  S
C104        C141   1.475       .  S
C105        C150   1.479       .  S
C106        C501   1.479       .  S
Zn107      O2118   1.959   1_455  S
Zn107       O112   2.025       .  S
Zn107       O116   2.007   1_554  S
Zn107       O792   2.004   1_544  S
Zn108       O111   1.934       .  S
Zn108       O119   1.973       .  S
Zn108       O782   1.975       .  S
Zn108      O2122   2.005       .  S
Zn109       O780   1.971       .  S
Zn109       O117   2.060       .  S
Zn109      O1452   2.035   1_554  S
Zn109       O789   2.040   1_544  S
Zn110       O111   1.963       .  S
Zn110       O118   2.015   1_554  S
Zn110       O121   2.031       .  S
Zn110      O1460   2.008   1_554  S
O111      Zn2114   1.959       .  S
O111       Zn778   1.971       .  S
O112        C124   1.272       .  A
O113       Zn777   1.975       .  S
O113        C125   1.267       .  A
O114      Zn1447   2.035   1_456  S
O114        C126   1.277       .  A
O115      Zn2115   2.005   1_455  S
O115        C124   1.272       .  A
O116        C126   1.273       .  A
O117        C125   1.278       .  A
O118        C127   1.273       .  A
O119        C128   1.268       .  A
O120       Zn778   2.040   1_556  S
O120        C127   1.276       .  A
O121        C128   1.274       .  A
O122      Zn1448   2.008   1_456  S
O122        C129   1.273       .  A
O123       Zn776   2.004   1_556  S
O123        C129   1.271       .  A
C124        C210   1.490       .  S
C125        C241   1.488       .  S
C126        C330   1.479       .  S
C127        C321   1.480       .  S
C128        C190   1.469       .  S
C129        C361   1.479       .  S
C130        C131   1.412       .  A
C130        C135   1.408       .  A
C131        C132   1.392       .  A
C131       Br816   1.907   1_545  S
C132        C133   1.396       .  A
C132        H136   1.084       .  S
C133        C137   1.469       .  S
C133        C134   1.404       .  A
C134        C135   1.398       .  A
C134       Br146   1.916       .  S
C135        H138   1.083       .  S
C137        C139   1.399       .  A
C137        C143   1.406       .  A
C139        C140   1.396       .  A
C139        H144   1.084       .  S
C140        C141   1.414       .  A
C140       Br148   1.922       .  S
C141        C142   1.405       .  A
C142        C143   1.399       .  A
C142        H145   1.083       .  S
C143       Br149   1.919       .  S
Br147       C800   1.907       .  S
C150        C151   1.414       .  A
C150        C155   1.406       .  A
C151        C152   1.401       .  A
C151       Br167   1.921       .  S
C152        C153   1.402       .  A
C152        H156   1.084       .  S
C153        C157   1.473       .  S
C153        C154   1.404       .  A
C154        C155   1.394       .  A
C154       Br166   1.921       .  S
C155        H158   1.083       .  S
C157        C159   1.400       .  A
C157        C163   1.405       .  A
C159        C160   1.398       .  A
C159        H164   1.084       .  S
C160        C161   1.416       .  A
C160      Br1506   1.920       .  S
C161        C162   1.405       .  A
C162        C163   1.395       .  A
C162        H165   1.084       .  S
C163       Br169   1.919       .  S
Br168      C1498   1.920   1_455  S
C170        C171   1.410       .  A
C170        C175   1.403       .  A
C171        C172   1.397       .  A
C171       Br187   1.921       .  S
C172        C173   1.400       .  A
C172        H176   1.084       .  S
C173        C177   1.470       .  S
C173        C174   1.407       .  A
C174        C175   1.398       .  A
C174       Br186   1.919       .  S
C175        H178   1.083       .  S
C177        C179   1.399       .  A
C177        C183   1.406       .  A
C179        C180   1.394       .  A
C179        H184   1.084       .  S
C180        C181   1.407       .  A
C180      Br1526   1.913       .  S
C181        C182   1.403       .  A
C182        C183   1.398       .  A
C182        H854   1.083   1_545  S
C183       Br858   1.917       .  S
H185        C851   1.083       .  S
Br188      C1518   1.913   1_455  S
Br189       C852   1.917       .  S
C190        C191   1.411       .  A
C190        C195   1.403       .  A
C191        C192   1.394       .  A
C191       Br207   1.923       .  S
C192        C193   1.400       .  A
C192        H196   1.084       .  S
C193        C197   1.473       .  S
C193        C194   1.409       .  A
C194        C195   1.400       .  A
C194       Br206   1.918       .  S
C195        H198   1.083       .  S
C197        C199   1.395       .  A
C197        C203   1.407       .  A
C199        C200   1.393       .  A
C199        H204   1.084       .  S
C200        C201   1.414       .  A
C200       Br208   1.912       .  S
C201        C202   1.408       .  A
C202        C203   1.401       .  A
C202        H205   1.083       .  S
C203       Br209   1.918       .  S
C210        C211   1.418       .  A
C210        C215   1.410       .  A
C211        C212   1.400       .  A
C211       Br227   1.921       .  S
C212        C213   1.401       .  A
C212        H216   1.084       .  S
C213        C217   1.476       .  S
C213        C214   1.404       .  A
C214        C215   1.398       .  A
C214       Br226   1.918       .  S
C215        H218   1.083       .  S
C217        C219   1.399       .  A
C217        C223   1.406       .  A
C219        C220   1.396       .  A
C219        H224   1.084       .  S
C220        C221   1.415       .  A
C220       Br228   1.915       .  S
C221        C222   1.404       .  A
C222        C223   1.398       .  A
C222        H225   1.084       .  S
C223       Br229   1.917       .  S
C230        C231   1.411       .  A
C230        C235   1.405       .  A
C231        C232   1.394       .  A
C231       Br247   1.908       .  S
C232        C233   1.397       .  A
C232        H236   1.084       .  S
C233        C237   1.474       .  S
C233        C234   1.407       .  A
C234        C235   1.401       .  A
C234       Br246   1.916       .  S
C235        H238   1.083       .  S
C237        C239   1.396       .  A
C237        C243   1.407       .  A
C239        C240   1.395       .  A
C239        H244   1.084       .  S
C240        C241   1.421       .  A
C240       Br248   1.925       .  S
C241        C242   1.408       .  A
C242        C243   1.403       .  A
C242        H245   1.083       .  S
C243       Br249   1.918       .  S
C250        C251   1.414       .  A
C250        C255   1.409       .  A
C251        C252   1.405       .  A
C251       Br267   1.911       .  S
C252        C253   1.403       .  A
C252        H256   1.084       .  S
C253        C257   1.494       .  S
C253        C254   1.410       .  A
C254        C255   1.405       .  A
C254       Br266   1.918       .  S
C255        H258   1.083       .  S
C257        C259   1.407       .  A
C257        C263   1.407       .  A
C259        C260   1.409       .  A
C259        H264   1.083       .  S
C260        C261   1.413       .  A
C260       Br937   1.915   1_545  S
C261        C262   1.409       .  A
C262        C263   1.400       .  A
C262        H265   1.082       .  S
C263       Br269   1.918       .  S
Br268       C929   1.915       .  S
C270        C271   1.413       .  A
C270        C275   1.408       .  A
C271        C272   1.407       .  A
C271       Br287   1.916       .  S
C272        C273   1.406       .  A
C272        H276   1.083       .  S
C273        C277   1.485       .  S
C273        C274   1.405       .  A
C274        C275   1.396       .  A
C274       Br286   1.918       .  S
C275        H278   1.083       .  S
C277        C279   1.406       .  A
C277        C283   1.406       .  A
C279        C280   1.405       .  A
C279        H284   1.083       .  S
C280        C281   1.410       .  A
C280       Br288   1.915       .  S
C281        C282   1.408       .  A
C282        C283   1.399       .  A
C282        H285   1.084   1_545  S
C283       Br289   1.918       .  S
C290        C291   1.414       .  A
C290        C295   1.405       .  A
C291        C292   1.395       .  A
C291       Br307   1.912       .  S
C292        C293   1.398       .  A
C292        H296   1.084       .  S
C293        C297   1.490       .  S
C293        C294   1.414       .  A
C294        C295   1.409       .  A
C294       Br306   1.918       .  S
C295        H298   1.083       .  S
C297        C299   1.403       .  A
C297        C303   1.413       .  A
C299        C300   1.399       .  A
C299        H304   1.084       .  S
C300        C301   1.414       .  A
C300       Br308   1.921       .  S
C301        C302   1.403       .  A
C302        C303   1.405       .  A
C302        H305   1.083       .  S
C303       Br309   1.916       .  S
C310        C311   1.410       .  A
C310        C315   1.404       .  A
C311        C312   1.398       .  A
C311       Br327   1.908       .  S
C312        C313   1.400       .  A
C312        H316   1.084       .  S
C313        C317   1.482       .  S
C313        C314   1.410       .  A
C314        C315   1.402       .  A
C314       Br326   1.917       .  S
C315        H318   1.084       .  S
C317        C319   1.405       .  A
C317        C323   1.407       .  A
C319        C320   1.401       .  A
C319        H324   1.084       .  S
C320        C321   1.410       .  A
C320       Br328   1.919       .  S
C321        C322   1.406       .  A
C322        C323   1.401       .  A
C322        H325   1.084       .  S
C323       Br329   1.919       .  S
C330        C331   1.412       .  A
C330        C335   1.405       .  A
C331        C332   1.399       .  A
C331       Br347   1.921   1_455  S
C332        C333   1.402       .  A
C332        H336   1.084       .  S
C333        C337   1.479       .  S
C333        C334   1.409       .  A
C334        C335   1.400       .  A
C334       Br346   1.920       .  S
C335        H338   1.084       .  S
C337        C339   1.400       .  A
C337        C343   1.410       .  A
C339        C340   1.395       .  A
C339        H344   1.084       .  S
C340        C341   1.414       .  A
C340       Br348   1.929       .  S
C341        C342   1.402       .  A
C342        C343   1.401       .  A
C342        H345   1.084       .  S
C343       Br349   1.918       .  S
C350        C351   1.433       .  A
C350        C355   1.408       .  A
C351        C352   1.396       .  A
C351       Br367   1.923       .  S
C352        C353   1.391       .  A
C352        H356   1.084       .  S
C353        C357   1.470       .  S
C353        C354   1.399       .  A
C354        C355   1.396       .  A
C354       Br366   1.915       .  S
C355        H358   1.074       .  S
C357        C359   1.399       .  A
C357        C363   1.405       .  A
C359        C360   1.398       .  A
C359        H364   1.084       .  S
C360        C361   1.416       .  A
C360      Br1037   1.922       .  S
C361        C362   1.406       .  A
C362        C363   1.395       .  A
C362        H365   1.083       .  S
C363       Br369   1.921       .  S
Br368      C1029   1.922   1_545  S
C370        C371   1.413       .  A
C370        C375   1.400       .  A
C371        C372   1.404       .  A
C371       Br387   1.918   1_455  S
C372        C373   1.405       .  A
C372        H376   1.083       .  S
C373        C377   1.501       .  S
C373        C374   1.416       .  A
C374        C375   1.404       .  A
C374       Br386   1.913       .  S
C375        H378   1.083       .  S
C377        C379   1.402       .  A
C377        C383   1.414       .  A
C379        C380   1.401       .  A
C379        H384   1.084       .  S
C380        C381   1.415       .  A
C380       Br388   1.908       .  S
C381        C382   1.408       .  A
C382        C383   1.410       .  A
C382        H385   1.082       .  S
C383       Br389   1.918       .  S
C390        C391   1.408       .  A
C390        C395   1.402       .  A
C391        C392   1.403       .  A
C391       Br407   1.911       .  S
C392        C393   1.408       .  A
C392        H396   1.083       .  S
C393        C397   1.505       .  S
C393        C394   1.418       .  A
C394        C395   1.407       .  A
C394       Br406   1.922   1_455  S
C395        H398   1.083   1_455  S
C397        C399   1.412       .  A
C397        C403   1.410       .  A
C399        C400   1.411       .  A
C399        H404   1.083       .  S
C400        C401   1.412       .  A
C400       Br408   1.912       .  S
C401        C402   1.405       .  A
C402        C403   1.399       .  A
C402        H405   1.067       .  S
C403       Br409   1.923       .  S
C410        C411   1.407       .  A
C410        C415   1.408       .  A
C411        C412   1.404       .  A
C411       Br427   1.912       .  S
C412        C413   1.412       .  A
C412        H416   1.078       .  S
C413        C417   1.516       .  S
C413        C414   1.421       .  A
C414        C415   1.403       .  A
C414       Br426   1.924       .  S
C415        H418   1.083       .  S
C417        C419   1.409       .  A
C417        C423   1.418       .  A
C419        C420   1.406       .  A
C419        H424   1.081       .  S
C420        C421   1.421       .  A
C420       Br428   1.919       .  S
C421        C422   1.411       .  A
C422        C423   1.404       .  A
C422        H425   1.081       .  S
C423       Br429   1.922       .  S
C430        C431   1.418       .  A
C430        C435   1.409       .  A
C431        C432   1.392       .  A
C431      Br1116   1.912       .  S
C432        C433   1.396       .  A
C432        H436   1.084       .  S
C433        C437   1.482       .  S
C433        C434   1.410       .  A
C434        C435   1.402       .  A
C434       Br446   1.919       .  S
C435        H438   1.083       .  S
C437        C439   1.405       .  A
C437        C443   1.415       .  A
C439        C440   1.400       .  A
C439        H444   1.083       .  S
C440        C441   1.406       .  A
C440       Br448   1.918       .  S
C441        C442   1.396       .  A
C442        C443   1.395       .  A
C442        H445   1.084       .  S
C443       Br449   1.922       .  S
Br447      C1100   1.912   1_545  S
C450        C451   1.413       .  A
C450        C455   1.404       .  A
C451        C452   1.395       .  A
C451      Br1805   1.919   1_455  S
C452        C453   1.399       .  A
C452        H456   1.084       .  S
C453        C457   1.471       .  S
C453        C454   1.405       .  A
C454        C455   1.399       .  A
C454       Br466   1.917       .  S
C455        H458   1.084       .  S
C457        C459   1.396       .  A
C457        C463   1.405       .  A
C459        C460   1.397       .  A
C459        H464   1.084       .  S
C460        C461   1.421       .  A
C460       Br468   1.925       .  S
C461        C462   1.406       .  A
C462        C463   1.399       .  A
C462        H465   1.083       .  S
C463       Br469   1.918       .  S
Br467      C1789   1.919       .  S
C470        C471   1.411       .  A
C470        C475   1.406       .  A
C471        C472   1.404       .  A
C471      Br1156   1.912       .  S
C472        C473   1.403       .  A
C472        H476   1.083       .  S
C473        C477   1.480       .  S
C473        C474   1.405       .  A
C474        C475   1.396       .  A
C474       Br486   1.918   1_455  S
C475       H1816   1.083   1_455  S
C477        C479   1.400       .  A
C477        C483   1.407       .  A
H478       C1813   1.083       .  S
C479        C480   1.402       .  A
C479        H484   1.083       .  S
C480        C481   1.418       .  A
C480       Br488   1.922       .  S
C481        C482   1.405       .  A
C482        C483   1.400       .  A
C482        H485   1.083       .  S
C483       Br489   1.919       .  S
Br487      C1140   1.912   1_545  S
C490        C491   1.407       .  A
C490        C495   1.405       .  A
C491        C492   1.393       .  A
C491       Br507   1.912       .  S
C492        C493   1.399       .  A
C492        H496   1.084       .  S
C493        C497   1.473       .  S
C493        C494   1.408       .  A
C494        C495   1.401       .  A
C494       Br506   1.917       .  S
C495        H498   1.083       .  S
C497        C499   1.400       .  A
C497        C503   1.406       .  A
C499        C500   1.396       .  A
C499        H504   1.084       .  S
C500        C501   1.414       .  A
C500       Br508   1.922       .  S
C501        C502   1.407       .  A
C502        C503   1.400       .  A
C502        H505   1.083       .  S
C503       Br509   1.918       .  S
C510        C511   1.416       .  A
C510        C515   1.410       .  A
C511       C1850   1.400       .  A
C511       Br527   1.921       .  S
C512        C513   1.402       .  A
C512       C1849   1.400   1_455  A
C512        H516   1.084       .  S
C513        C517   1.473       .  S
C513       C1852   1.402   1_455  A
C514        C515   1.394       .  A
C514       C1851   1.402       .  A
C514       Br526   1.921       .  S
C515        H518   1.083       .  S
C517        C519   1.402       .  A
C517        C523   1.404       .  A
C519        C520   1.396       .  A
C519        H524   1.084       .  S
C520        C521   1.411       .  A
C520       Br528   1.916       .  S
C521        C522   1.406       .  A
C522        C523   1.395       .  A
C522        H525   1.082       .  S
C523       Br529   1.918       .  S
C530        C531   1.418       .  A
C530        C535   1.404       .  A
C531        C532   1.395       .  A
C531       Br547   1.925       .  S
C532       C1202   1.398   1_545  A
C532        H536   1.084       .  S
C533        C537   1.469       .  S
C533        C534   1.405       .  A
C533       C1201   1.398       .  A
C534       C1204   1.396       .  A
C534       Br546   1.919       .  S
C535       C1203   1.396   1_545  A
C535        H538   1.083       .  S
C537        C539   1.395       .  A
C537        C543   1.404       .  A
C539        C540   1.392       .  A
C539        H544   1.084       .  S
C540        C541   1.414       .  A
C540       Br548   1.910       .  S
C541        C542   1.407       .  A
C542        C543   1.397       .  A
C542        H545   1.083       .  S
C543       Br549   1.917       .  S
C550        C551   1.416       .  A
C550        C555   1.409       .  A
C551        C552   1.397       .  A
C551       Br567   1.907       .  S
C552        C553   1.396       .  A
C552        H556   1.084       .  S
C553        C557   1.481       .  S
C553        C554   1.407       .  A
C554        C555   1.404       .  A
C554       Br566   1.916       .  S
C555        H558   1.083       .  S
C557        C559   1.402       .  A
C557        C563   1.407       .  A
C559        C560   1.403       .  A
C559        H564   1.083       .  S
C560        C561   1.414       .  A
C560       Br568   1.920       .  S
C561        C562   1.406       .  A
C562        C563   1.400       .  A
C562        H565   1.083       .  S
C563       Br569   1.919       .  S
C570        C571   1.416       .  A
C570        C575   1.409       .  A
C571        C572   1.394       .  A
C571       Br587   1.913       .  S
C572        C573   1.395       .  A
C572        H576   1.084       .  S
C573        C577   1.470       .  S
C573        C574   1.404       .  A
C574        C575   1.398       .  A
C574       Br586   1.915       .  S
C575        H578   1.083       .  S
C577        C583   1.405       .  A
C577       C1917   1.399       .  A
C579        C580   1.397       .  A
C579       C1915   1.399   1_455  A
C579        H584   1.084       .  S
C580        C581   1.414       .  A
C580       Br588   1.922       .  S
C581        C582   1.406       .  A
C582       C1921   1.398   1_455  A
C582        H585   1.083       .  S
C583       C1920   1.398       .  A
C583       Br589   1.918       .  S
C590        C591   1.414       .  A
C590        C595   1.406       .  A
C591        C592   1.398       .  A
C591       Br607   1.915       .  S
C592        C593   1.400       .  A
C592        H596   1.084       .  S
C593        C597   1.478       .  S
C593        C594   1.406       .  A
C594        C595   1.399       .  A
C594       Br606   1.917       .  S
C595        H598   1.084       .  S
C597       C1268   1.401       .  A
C597       C1272   1.406   1_545  A
C599        C600   1.399       .  A
C599       C1266   1.401       .  A
C599       H1273   1.084       .  S
C600        C601   1.413       .  A
C600       Br608   1.921       .  S
C601        C602   1.408       .  A
C602        C603   1.401       .  A
C602        H605   1.083       .  S
C603       C1266   1.406       .  A
C603       Br609   1.919       .  S
H604       C1268   1.084       .  S
C610        C611   1.414       .  A
C610        C615   1.409       .  A
C611        C612   1.406       .  A
C611       Br627   1.912       .  S
C612        C613   1.403       .  A
C612        H616   1.084       .  S
C613        C617   1.489       .  S
C613        C614   1.407       .  A
C614        C615   1.403       .  A
C614       Br626   1.917       .  S
C615        H618   1.083       .  S
C617        C619   1.405       .  A
C617        C623   1.404       .  A
C619        C620   1.408       .  A
C619        H624   1.084       .  S
C620        C621   1.416       .  A
C620       Br628   1.915       .  S
C621        C622   1.412       .  A
C622        C623   1.400       .  A
C622        H625   1.082       .  S
C623       Br629   1.919       .  S
C630        C631   1.416       .  A
C630        C635   1.405       .  A
C631        C632   1.403       .  A
C631       Br647   1.921       .  S
C632        C633   1.405       .  A
C632        H636   1.083       .  S
C633       C1306   1.501   1_545  S
C633        C634   1.415       .  A
C634        C635   1.409       .  A
C634       Br646   1.915       .  S
C635        H638   1.083       .  S
C637       C1302   1.501       .  S
C637        C639   1.404       .  A
C637        C643   1.416       .  A
C639        C640   1.402       .  A
C639        H644   1.083       .  S
C640        C641   1.414       .  A
C640       Br648   1.916       .  S
C641        C642   1.405       .  A
C642        C643   1.410       .  A
C642        H645   1.083       .  S
C643       Br649   1.918       .  S
C650        C651   1.413       .  A
C650        C655   1.403       .  A
C651        C652   1.404       .  A
C651       Br667   1.919       .  S
C652        C653   1.406       .  A
C652        H656   1.083       .  S
C653       C1995   1.503   1_455  S
C653        C654   1.416       .  A
C654        C655   1.409       .  A
C654       Br666   1.915       .  S
C655        H658   1.084       .  S
C657       C1991   1.503       .  S
C657        C659   1.403       .  A
C657        C663   1.416       .  A
C659        C660   1.403       .  A
C659       H2002   1.083       .  S
C660        C661   1.417       .  A
C660       Br668   1.915       .  S
C661        C662   1.407       .  A
C662        C663   1.412       .  A
C662        H665   1.083       .  S
C663       Br669   1.918       .  S
H664       C1997   1.083       .  S
C670        H671   1.110       .  S
C670        C676   1.531       .  S
C670        C675   1.533       .  S
C670        C674   1.533       .  S
C672        H673   1.110       .  S
C672        C678   1.559       .  S
C672        C677   1.560       .  S
C672        C679   1.561       .  S
C674        C677   1.380       .  D
C674       C1239   1.493       .  S
C675        C678   1.378       .  D
C675       C1259   1.491       .  S
C676        C679   1.380       .  D
C676       C1219   1.502       .  S
C677       C1330   1.510       .  S
C678       C1299   1.504       .  S
C679       C1279   1.503       .  S
C680        H681   1.111       .  S
C680        C686   1.529       .  S
C680        C685   1.523       .  S
C680        C684   1.526       .  S
C682        H683   1.108       .  S
C682        C688   1.562       .  S
C682        C687   1.561       .  S
C682        C689   1.556       .  S
C684        C687   1.377       .  D
C684       C1190   1.484       .  S
C685        C688   1.379       .  D
C685       C1159   1.483       .  S
C686        C689   1.377       .  D
C686       C1210   1.490       .  S
C687       C1319   1.500       .  S
C688       C1290   1.511       .  S
C689       C1310   1.503       .  S
Zn690       O694   1.961       .  S
Zn690       O695   2.031       .  S
Zn690       O699   2.020       .  S
Zn690       O706   2.029       .  S
Zn691       O694   1.941       .  S
Zn691       O696   2.000       .  S
Zn691       O698   1.983       .  S
Zn691       O702   1.974       .  S
Zn692       O694   1.966       .  S
Zn692       O697   2.027       .  S
Zn692       O700   2.053       .  S
Zn692       O703   2.013       .  S
Zn693       O694   1.968       .  S
Zn693       O701   2.016       .  S
Zn693       O704   2.044       .  S
Zn693       O705   2.025       .  S
O695        C707   1.274       .  A
O696        C708   1.270       .  A
O697        C709   1.275       .  A
O698        C707   1.268       .  A
O699        C709   1.275       .  A
O700        C708   1.277       .  A
O701        C710   1.275       .  A
O702        C711   1.266       .  A
O703        C710   1.275       .  A
O704        C711   1.276       .  A
O705        C712   1.274       .  A
O706        C712   1.274       .  A
C707       C1110   1.462       .  S
C708       C1150   1.487       .  S
C709       C1270   1.483       .  S
C710       C1250   1.477       .  S
C711       C1130   1.484       .  S
C712       C1230   1.484       .  S
C713        H714   1.109       .  S
C713        C719   1.530       .  S
C713       C1386   1.533   1_455  S
C715        H716   1.104       .  S
C715       C1389   1.562       .  S
C715        C722   1.546   1_655  S
C717       C1382   1.533   1_565  S
C717        C720   1.396       .  D
C717       C1099   1.500       .  S
C718        C721   1.377       .  D
C718       C1139   1.492       .  S
C719        C722   1.368       .  D
C719       C1119   1.481       .  S
C720       C1384   1.562   1_565  S
C720       C1090   1.522       .  S
C721       C1039   1.495       .  S
C722       C1059   1.498       .  S
C723        H724   1.106       .  S
C723        C729   1.565       .  S
C723        C728   1.556       .  S
C723        C727   1.572       .  S
C725        H726   1.098       .  S
C725        C731   1.533       .  S
C725        C730   1.527       .  S
C725        C732   1.522       .  S
C727        C730   1.393       .  D
C727       C1050   1.507       .  S
C728        C731   1.376       .  D
C728       C1070   1.515       .  S
C729        C732   1.377       .  D
C729       C1079   1.512       .  S
C730       C1019   1.513       .  S
C731       C1010   1.481       .  S
C732        C979   1.492       .  S
C733        H734   1.111       .  S
C733        C739   1.527       .  S
C733        C738   1.529       .  S
C733        C737   1.529       .  S
C735        H736   1.110       .  S
C735        C741   1.557       .  S
C735        C740   1.557       .  S
C735        C742   1.559       .  S
C737        C740   1.378       .  D
C737        C890   1.488       .  S
C738        C741   1.377       .  D
C738        C899   1.487       .  S
C739        C742   1.377       .  D
C739        C870   1.492       .  S
C740        C939   1.501       .  S
C741        C919   1.504       .  S
C742        C959   1.496       .  S
C743        H744   1.110   1_545  S
C743       C1418   1.556       .  S
C743        C748   1.556   1_545  S
C745        H746   1.111       .  S
C745        C751   1.528   1_545  S
C745       C1421   1.522       .  S
C747        C750   1.376       .  D
C747        C930   1.507       .  S
C748        C751   1.378       .  D
C748        C970   1.494       .  S
C749       C1412   1.556       .  S
C749        C752   1.374       .  D
C749        C950   1.493       .  S
C750        C850   1.478       .  S
C751        C830   1.488       .  S
C752       C1414   1.522       .  S
C752        C799   1.490       .  S
Zn753       O757   1.929       .  S
Zn753       O758   1.983       .  S
Zn753       O762   1.971       .  S
Zn753       O769   1.992       .  S
Zn754       O757   1.953       .  S
Zn754       O759   2.007       .  S
Zn754       O761   2.035       .  S
Zn754       O765   2.017       .  S
Zn755       O757   1.954       .  S
Zn755       O760   2.023       .  S
Zn755       O763   2.012       .  S
Zn755       O766   2.003       .  S
Zn756       O757   1.952       .  S
Zn756       O764   2.015       .  S
Zn756       O767   2.012       .  S
Zn756       O768   2.031       .  S
O758        C770   1.271       .  A
O759        C771   1.273       .  A
O760        C772   1.274       .  A
O761        C770   1.274       .  A
O762        C772   1.266       .  A
O763        C771   1.273       .  A
O764        C773   1.273       .  A
O765        C774   1.274       .  A
O766        C773   1.272       .  A
O767        C774   1.275       .  A
O768        C775   1.275       .  A
O769        C775   1.270       .  A
C770       C1179   1.487       .  S
C771        C839   1.469       .  S
C772       C1199   1.476       .  S
C773        C810   1.475       .  S
C774        C819   1.479       .  S
C775       C1170   1.479       .  S
Zn776      O1449   1.959   1_455  S
Zn776       O781   2.025       .  S
Zn776       O785   2.007   1_554  S
Zn777       O780   1.934       .  S
Zn777      O1453   2.005       .  S
Zn777       O788   1.973   1_545  S
Zn778      O2121   2.035   1_554  S
Zn778       O786   2.060       .  S
Zn779       O780   1.963   1_565  S
Zn779       O787   2.015   1_554  S
Zn779       O790   2.031       .  S
Zn779      O2129   2.008   1_554  S
O780      Zn1445   1.959       .  S
O781        C793   1.272       .  A
O782        C794   1.267       .  A
O783      Zn2116   2.035   1_456  S
O783        C795   1.277       .  A
O784      Zn1446   2.005   1_455  S
O784        C793   1.272       .  A
O785        C795   1.273       .  A
O786        C794   1.278       .  A
O787        C796   1.273       .  A
O788        C797   1.268       .  A
O789        C796   1.276       .  A
O790        C797   1.274       .  A
O791      Zn2117   2.008   1_456  S
O791        C798   1.273       .  A
O792        C798   1.271       .  A
C793        C879   1.490       .  S
C794        C910   1.488       .  S
C795        C999   1.479       .  S
C796        C990   1.480       .  S
C797        C859   1.469       .  S
C798       C1030   1.479       .  S
C799        C800   1.412       .  A
C799        C804   1.408       .  A
C800        C801   1.392       .  A
C801        C802   1.396       .  A
C801        H805   1.084       .  S
C802        C806   1.469       .  S
C802        C803   1.404       .  A
C803        C804   1.398       .  A
C803       Br815   1.916       .  S
C804        H807   1.083       .  S
C806        C808   1.399       .  A
C806        C812   1.406       .  A
C808        C809   1.396       .  A
C808        H813   1.084       .  S
C809        C810   1.414       .  A
C809       Br817   1.922       .  S
C810        C811   1.405       .  A
C811        C812   1.399       .  A
C811        H814   1.083       .  S
C812       Br818   1.919       .  S
C819        C820   1.414       .  A
C819        C824   1.406       .  A
C820        C821   1.401       .  A
C820       Br836   1.921       .  S
C821        C822   1.402       .  A
C821        H825   1.084       .  S
C822        C826   1.473       .  S
C822        C823   1.404       .  A
C823        C824   1.394       .  A
C823       Br835   1.921       .  S
C824        H827   1.083       .  S
C826        C828   1.400       .  A
C826        C832   1.405       .  A
C828        C829   1.398       .  A
C828        H833   1.084       .  S
C829        C830   1.416       .  A
C829      Br2175   1.920       .  S
C830        C831   1.405       .  A
C831        C832   1.395       .  A
C831        H834   1.084       .  S
C832       Br838   1.919       .  S
Br837      C2167   1.920   1_455  S
C839        C840   1.410       .  A
C839        C844   1.403       .  A
C840        C841   1.397       .  A
C840       Br856   1.921       .  S
C841        C842   1.400       .  A
C841        H845   1.084       .  S
C842        C846   1.470       .  S
C842        C843   1.407       .  A
C843        C844   1.398       .  A
C843       Br855   1.919       .  S
C844        H847   1.083       .  S
C846        C848   1.399       .  A
C846        C852   1.406       .  A
C848        C849   1.394       .  A
C848        H853   1.084       .  S
C849        C850   1.407       .  A
C849      Br2195   1.913       .  S
C850        C851   1.403       .  A
C851        C852   1.398       .  A
Br857      C2187   1.913   1_455  S
C859        C860   1.411       .  A
C859        C864   1.403       .  A
C860        C861   1.394       .  A
C860       Br876   1.923       .  S
C861        C862   1.400       .  A
C861        H865   1.084       .  S
C862        C866   1.473       .  S
C862        C863   1.409       .  A
C863        C864   1.400       .  A
C863       Br875   1.918       .  S
C864        H867   1.083       .  S
C866        C868   1.395       .  A
C866        C872   1.407       .  A
C868        C869   1.393       .  A
C868        H873   1.084       .  S
C869        C870   1.414       .  A
C869       Br877   1.912       .  S
C870        C871   1.408       .  A
C871        C872   1.401       .  A
C871        H874   1.083       .  S
C872       Br878   1.918       .  S
C879        C880   1.418       .  A
C879        C884   1.410       .  A
C880        C881   1.400       .  A
C880       Br896   1.921       .  S
C881        C882   1.401       .  A
C881        H885   1.084       .  S
C882        C886   1.476       .  S
C882        C883   1.404       .  A
C883        C884   1.398       .  A
C883       Br895   1.918       .  S
C884        H887   1.083       .  S
C886        C888   1.399       .  A
C886        C892   1.406       .  A
C888        C889   1.396       .  A
C888        H893   1.084       .  S
C889        C890   1.415       .  A
C889       Br897   1.915       .  S
C890        C891   1.404       .  A
C891        C892   1.398       .  A
C891        H894   1.084       .  S
C892       Br898   1.917       .  S
C899        C900   1.411       .  A
C899        C904   1.405       .  A
C900        C901   1.394       .  A
C900       Br916   1.908       .  S
C901        C902   1.397       .  A
C901        H905   1.084       .  S
C902        C906   1.474       .  S
C902        C903   1.407       .  A
C903        C904   1.401       .  A
C903       Br915   1.916       .  S
C904        H907   1.083       .  S
C906        C908   1.396       .  A
C906        C912   1.407       .  A
C908        C909   1.395       .  A
C908        H913   1.084       .  S
C909        C910   1.421       .  A
C909       Br917   1.925       .  S
C910        C911   1.408       .  A
C911        C912   1.403       .  A
C911        H914   1.083       .  S
C912       Br918   1.918       .  S
C919        C920   1.414       .  A
C919        C924   1.409       .  A
C920        C921   1.405       .  A
C920       Br936   1.911       .  S
C921        C922   1.403       .  A
C921        H925   1.084       .  S
C922        C926   1.494       .  S
C922        C923   1.410       .  A
C923        C924   1.405       .  A
C923       Br935   1.918       .  S
C924        H927   1.083       .  S
C926        C928   1.407       .  A
C926        C932   1.407       .  A
C928        C929   1.409       .  A
C928        H933   1.083       .  S
C929        C930   1.413       .  A
C930        C931   1.409       .  A
C931        C932   1.400       .  A
C931        H934   1.082       .  S
C932       Br938   1.918       .  S
C939        C940   1.413       .  A
C939        C944   1.408       .  A
C940        C941   1.407       .  A
C940       Br956   1.916       .  S
C941        C942   1.406       .  A
C941        H945   1.083       .  S
C942        C946   1.485       .  S
C942        C943   1.405       .  A
C943        C944   1.396       .  A
C943       Br955   1.918       .  S
C944        H947   1.083       .  S
C946        C948   1.406       .  A
C946        C952   1.406       .  A
C948        C949   1.405       .  A
C948        H953   1.083       .  S
C949        C950   1.410       .  A
C949       Br957   1.915       .  S
C950        C951   1.408       .  A
C951        C952   1.399       .  A
C951        H954   1.084       .  S
C952       Br958   1.918       .  S
C959        C960   1.414       .  A
C959        C964   1.405       .  A
C960        C961   1.395       .  A
C960       Br976   1.912       .  S
C961        C962   1.398       .  A
C961        H965   1.084       .  S
C962        C966   1.490       .  S
C962        C963   1.414       .  A
C963        C964   1.409       .  A
C963       Br975   1.918       .  S
C964        H967   1.083       .  S
C966        C968   1.403       .  A
C966        C972   1.413       .  A
C968        C969   1.399       .  A
C968        H973   1.084       .  S
C969        C970   1.414       .  A
C969       Br977   1.921       .  S
C970        C971   1.403       .  A
C971        C972   1.405       .  A
C971        H974   1.083       .  S
C972       Br978   1.916       .  S
C979        C980   1.410       .  A
C979        C984   1.404       .  A
C980        C981   1.398       .  A
C980       Br996   1.908       .  S
C981        C982   1.400       .  A
C981        H985   1.084       .  S
C982        C986   1.482       .  S
C982        C983   1.410       .  A
C983        C984   1.402       .  A
C983       Br995   1.917       .  S
C984        H987   1.084       .  S
C986        C988   1.405       .  A
C986        C992   1.407       .  A
C988        C989   1.401       .  A
C988        H993   1.084       .  S
C989        C990   1.410       .  A
C989       Br997   1.919       .  S
C990        C991   1.406       .  A
C991        C992   1.401       .  A
C991        H994   1.084       .  S
C992       Br998   1.919       .  S
C999       C1000   1.412       .  A
C999       C1004   1.405       .  A
C1000      C1001   1.399       .  A
C1000     Br1016   1.921   1_455  S
C1001      C1002   1.402       .  A
C1001      H1005   1.084       .  S
C1002      C1006   1.479       .  S
C1002      C1003   1.409       .  A
C1003      C1004   1.400       .  A
C1003     Br1015   1.920       .  S
C1004      H1007   1.084       .  S
C1006      C1008   1.400       .  A
C1006      C1012   1.410       .  A
C1008      C1009   1.395       .  A
C1008      H1013   1.084       .  S
C1009      C1010   1.414       .  A
C1009     Br1017   1.929       .  S
C1010      C1011   1.402       .  A
C1011      C1012   1.401       .  A
C1011      H1014   1.084       .  S
C1012     Br1018   1.918       .  S
C1019      C1020   1.433       .  A
C1019      C1024   1.408       .  A
C1020      C1021   1.396       .  A
C1020     Br1036   1.923       .  S
C1021      C1022   1.391       .  A
C1021      H1025   1.084       .  S
C1022      C1026   1.470       .  S
C1022      C1023   1.399       .  A
C1023      C1024   1.396       .  A
C1023     Br1035   1.915       .  S
C1024      H1027   1.074       .  S
C1026      C1028   1.399       .  A
C1026      C1032   1.405       .  A
C1028      C1029   1.398       .  A
C1028      H1033   1.084       .  S
C1029      C1030   1.416       .  A
C1030      C1031   1.406       .  A
C1031      C1032   1.395       .  A
C1031      H1034   1.083       .  S
C1032     Br1038   1.921       .  S
C1039      C1040   1.413       .  A
C1039      C1044   1.400       .  A
C1040      C1041   1.404       .  A
C1040     Br1056   1.918   1_455  S
C1041      C1042   1.405       .  A
C1041      H1045   1.083       .  S
C1042      C1046   1.501       .  S
C1042      C1043   1.416       .  A
C1043      C1044   1.404       .  A
C1043     Br1055   1.913       .  S
C1044      H1047   1.083   1_565  S
C1046      C1048   1.402       .  A
C1046      C1052   1.414       .  A
C1048      C1049   1.401       .  A
C1048      H1053   1.084       .  S
C1049      C1050   1.415       .  A
C1049     Br1057   1.908       .  S
C1050      C1051   1.408       .  A
C1051      C1052   1.410       .  A
C1051      H1054   1.082       .  S
C1052     Br1058   1.918       .  S
C1059      C1060   1.408       .  A
C1059      C1064   1.402       .  A
C1060      C1061   1.403       .  A
C1060     Br1076   1.911       .  S
C1061      C1062   1.408       .  A
C1061      H1065   1.083       .  S
C1062      C1066   1.505       .  S
C1062      C1063   1.418       .  A
C1063      C1064   1.407       .  A
C1063     Br1075   1.922   1_455  S
C1064      H1067   1.083   1_455  S
C1066      C1068   1.412       .  A
C1066      C1072   1.410       .  A
C1068      C1069   1.411       .  A
C1068      H1073   1.083       .  S
C1069      C1070   1.412       .  A
C1069     Br1077   1.912       .  S
C1070      C1071   1.405       .  A
C1071      C1072   1.399       .  A
C1071      H1074   1.067       .  S
C1072     Br1078   1.923       .  S
C1079      C1080   1.407       .  A
C1079      C1084   1.408       .  A
C1080      C1081   1.404       .  A
C1080     Br1096   1.912       .  S
C1081      C1082   1.412       .  A
C1081      H1085   1.078       .  S
C1082      C1086   1.516       .  S
C1082      C1083   1.421       .  A
C1083      C1084   1.403       .  A
C1083     Br1095   1.924       .  S
C1084      H1087   1.083       .  S
C1086      C1088   1.409       .  A
C1086      C1092   1.418       .  A
C1088      C1089   1.406       .  A
C1088      H1093   1.081       .  S
C1089      C1090   1.421       .  A
C1089     Br1097   1.919       .  S
C1090      C1091   1.411       .  A
C1091      C1092   1.404       .  A
C1091      H1094   1.081       .  S
C1092     Br1098   1.922       .  S
C1099      C1100   1.418       .  A
C1099      C1104   1.409       .  A
C1100      C1101   1.392       .  A
C1101      C1102   1.396       .  A
C1101      H1105   1.084       .  S
C1102      C1106   1.482       .  S
C1102      C1103   1.410       .  A
C1103      C1104   1.402       .  A
C1103     Br1115   1.919       .  S
C1104      H1107   1.083       .  S
C1106      C1108   1.405       .  A
C1106      C1112   1.415       .  A
C1108      C1109   1.400       .  A
C1108      H1113   1.083       .  S
C1109      C1110   1.406       .  A
C1109     Br1117   1.918       .  S
C1110      C1111   1.396       .  A
C1111      C1112   1.395       .  A
C1111      H1114   1.084       .  S
C1112     Br1118   1.922       .  S
C1119      C1120   1.413       .  A
C1119      C1124   1.404       .  A
C1120      C1121   1.395       .  A
C1120     Br2474   1.919   1_455  S
C1121      C1122   1.399       .  A
C1121      H1125   1.084       .  S
C1122      C1126   1.471       .  S
C1122      C1123   1.405       .  A
C1123      C1124   1.399       .  A
C1123     Br1135   1.917       .  S
C1124      H1127   1.084       .  S
C1126      C1128   1.396       .  A
C1126      C1132   1.405       .  A
C1128      C1129   1.397       .  A
C1128      H1133   1.084       .  S
C1129      C1130   1.421       .  A
C1129     Br1137   1.925       .  S
C1130      C1131   1.406       .  A
C1131      C1132   1.399       .  A
C1131      H1134   1.083       .  S
C1132     Br1138   1.918       .  S
Br1136     C2458   1.919       .  S
C1139      C1140   1.411       .  A
C1139      C1144   1.406       .  A
C1140      C1141   1.404       .  A
C1141      C1142   1.403       .  A
C1141      H1145   1.083       .  S
C1142      C1146   1.480       .  S
C1142      C1143   1.405       .  A
C1143      C1144   1.396       .  A
C1143     Br1155   1.918   1_455  S
C1144      H2485   1.083   1_455  S
C1146      C1148   1.400       .  A
C1146      C1152   1.407       .  A
H1147      C2482   1.083       .  S
C1148      C1149   1.402       .  A
C1148      H1153   1.083       .  S
C1149      C1150   1.418       .  A
C1149     Br1157   1.922       .  S
C1150      C1151   1.405       .  A
C1151      C1152   1.400       .  A
C1151      H1154   1.083       .  S
C1152     Br1158   1.919       .  S
C1159      C1160   1.407       .  A
C1159      C1164   1.405       .  A
C1160      C1161   1.393       .  A
C1160     Br1176   1.912       .  S
C1161      C1162   1.399       .  A
C1161      H1165   1.084       .  S
C1162      C1166   1.473       .  S
C1162      C1163   1.408       .  A
C1163      C1164   1.401       .  A
C1163     Br1175   1.917       .  S
C1164      H1167   1.083       .  S
C1166      C1168   1.400       .  A
C1166      C1172   1.406       .  A
C1168      C1169   1.396       .  A
C1168      H1173   1.084       .  S
C1169      C1170   1.414       .  A
C1169     Br1177   1.922       .  S
C1170      C1171   1.407       .  A
C1171      C1172   1.400       .  A
C1171      H1174   1.083       .  S
C1172     Br1178   1.918       .  S
C1179      C1180   1.416       .  A
C1179      C1184   1.410       .  A
C1180      C2519   1.400       .  A
C1180     Br1196   1.921       .  S
C1181      C2518   1.400   1_455  A
C1181      C1182   1.402       .  A
C1181      H1185   1.084       .  S
C1182      C1186   1.473       .  S
C1182      C2521   1.402   1_455  A
C1183      C2520   1.402       .  A
C1183      C1184   1.394       .  A
C1183     Br1195   1.921       .  S
C1184      H1187   1.083       .  S
C1186      C1188   1.402       .  A
C1186      C1192   1.404       .  A
C1188      C1189   1.396       .  A
C1188      H1193   1.084       .  S
C1189      C1190   1.411       .  A
C1189     Br1197   1.916       .  S
C1190      C1191   1.406       .  A
C1191      C1192   1.395       .  A
C1191      H1194   1.082       .  S
C1192     Br1198   1.918       .  S
C1199      C1200   1.418       .  A
C1199      C1204   1.404       .  A
C1200      C1201   1.395       .  A
C1200     Br1216   1.925       .  S
C1201      H1205   1.084       .  S
C1202      C1206   1.469       .  S
C1202      C1203   1.405       .  A
C1203     Br1215   1.919       .  S
C1204      H1207   1.083       .  S
C1206      C1208   1.395       .  A
C1206      C1212   1.404       .  A
C1208      C1209   1.392       .  A
C1208      H1213   1.084       .  S
C1209      C1210   1.414       .  A
C1209     Br1217   1.910       .  S
C1210      C1211   1.407       .  A
C1211      C1212   1.397       .  A
C1211      H1214   1.083       .  S
C1212     Br1218   1.917       .  S
C1219      C1220   1.416       .  A
C1219      C1224   1.409       .  A
C1220      C1221   1.397       .  A
C1220     Br1236   1.907       .  S
C1221      C1222   1.396       .  A
C1221      H1225   1.084       .  S
C1222      C1226   1.481       .  S
C1222      C1223   1.407       .  A
C1223      C1224   1.404       .  A
C1223     Br1235   1.916       .  S
C1224      H1227   1.083       .  S
C1226      C1228   1.402       .  A
C1226      C1232   1.407       .  A
C1228      C1229   1.403       .  A
C1228      H1233   1.083       .  S
C1229      C1230   1.414       .  A
C1229     Br1237   1.920       .  S
C1230      C1231   1.406       .  A
C1231      C1232   1.400       .  A
C1231      H1234   1.083       .  S
C1232     Br1238   1.919       .  S
C1239      C1240   1.416       .  A
C1239      C1244   1.409       .  A
C1240      C1241   1.394       .  A
C1240     Br1256   1.913       .  S
C1241      C1242   1.395       .  A
C1241      H1245   1.084       .  S
C1242      C1246   1.470       .  S
C1242      C1243   1.404       .  A
C1243      C1244   1.398       .  A
C1243     Br1255   1.915       .  S
C1244      H1247   1.083       .  S
C1246      C2586   1.399       .  A
C1246      C1252   1.405       .  A
C1248      C2584   1.399   1_455  A
C1248      C1249   1.397       .  A
C1248      H1253   1.084       .  S
C1249      C1250   1.414       .  A
C1249     Br1257   1.922       .  S
C1250      C1251   1.406       .  A
C1251      C2590   1.398   1_455  A
C1251      H1254   1.083       .  S
C1252      C2589   1.398       .  A
C1252     Br1258   1.918       .  S
C1259      C1260   1.414       .  A
C1259      C1264   1.406       .  A
C1260      C1261   1.398       .  A
C1260     Br1276   1.915       .  S
C1261      C1262   1.400       .  A
C1261      H1265   1.084       .  S
C1262      C1266   1.478       .  S
C1262      C1263   1.406       .  A
C1263      C1264   1.399       .  A
C1263     Br1275   1.917       .  S
C1264      H1267   1.084       .  S
C1268      C1269   1.399   1_545  A
C1269      C1270   1.413       .  A
C1269     Br1277   1.921       .  S
C1270      C1271   1.408       .  A
C1271      C1272   1.401       .  A
C1271      H1274   1.083       .  S
C1272     Br1278   1.919       .  S
C1279      C1280   1.414       .  A
C1279      C1284   1.409       .  A
C1280      C1281   1.406       .  A
C1280     Br1296   1.912       .  S
C1281      C1282   1.403       .  A
C1281      H1285   1.084       .  S
C1282      C1286   1.489       .  S
C1282      C1283   1.407       .  A
C1283      C1284   1.403       .  A
C1283     Br1295   1.917       .  S
C1284      H1287   1.083       .  S
C1286      C1288   1.405       .  A
C1286      C1292   1.404       .  A
C1288      C1289   1.408       .  A
C1288      H1293   1.084       .  S
C1289      C1290   1.416       .  A
C1289     Br1297   1.915       .  S
C1290      C1291   1.412       .  A
C1291      C1292   1.400       .  A
C1291      H1294   1.082       .  S
C1292     Br1298   1.919       .  S
C1299      C1300   1.416       .  A
C1299      C1304   1.405       .  A
C1300      C1301   1.403       .  A
C1300     Br1316   1.921       .  S
C1301      C1302   1.405       .  A
C1301      H1305   1.083       .  S
C1302      C1303   1.415       .  A
C1303      C1304   1.409       .  A
C1303     Br1315   1.915       .  S
C1304      H1307   1.083       .  S
C1306      C1308   1.404       .  A
C1306      C1312   1.416       .  A
C1308      C1309   1.402       .  A
C1308      H1313   1.083       .  S
C1309      C1310   1.414       .  A
C1309     Br1317   1.916       .  S
C1310      C1311   1.405       .  A
C1311      C1312   1.410       .  A
C1311      H1314   1.083       .  S
C1312     Br1318   1.918       .  S
C1319      C1320   1.413       .  A
C1319      C1324   1.403       .  A
C1320      C1321   1.404       .  A
C1320     Br1336   1.919       .  S
C1321      C1322   1.406       .  A
C1321      H1325   1.083       .  S
C1322      C2664   1.503   1_455  S
C1322      C1323   1.416       .  A
C1323      C1324   1.409       .  A
C1323     Br1335   1.915       .  S
C1324      H1327   1.084       .  S
C1326      C2660   1.503       .  S
C1326      C1328   1.403       .  A
C1326      C1332   1.416       .  A
C1328      C1329   1.403       .  A
C1328      H2671   1.083       .  S
C1329      C1330   1.417       .  A
C1329     Br1337   1.915       .  S
C1330      C1331   1.407       .  A
C1331      C1332   1.412       .  A
C1331      H1334   1.083       .  S
C1332     Br1338   1.918       .  S
H1333      C2666   1.083       .  S
C1339      H1340   1.110       .  S
C1339      C1345   1.531       .  S
C1339      C1344   1.533       .  S
C1339      C1343   1.533       .  S
C1341      H1342   1.110       .  S
C1341      C1347   1.559       .  S
C1341      C1346   1.560       .  S
C1341      C1348   1.561       .  S
C1343      C1346   1.380       .  D
C1343      C1908   1.493       .  S
C1344      C1347   1.378       .  D
C1344      C1928   1.491       .  S
C1345      C1348   1.380       .  D
C1345      C1888   1.502       .  S
C1346      C1999   1.510       .  S
C1347      C1968   1.504       .  S
C1348      C1948   1.503       .  S
C1349      H1350   1.111       .  S
C1349      C1355   1.529       .  S
C1349      C1354   1.523       .  S
C1349      C1353   1.526       .  S
C1351      H1352   1.108       .  S
C1351      C1357   1.562       .  S
C1351      C1356   1.561       .  S
C1351      C1358   1.556       .  S
C1353      C1356   1.377       .  D
C1353      C1859   1.484       .  S
C1354      C1357   1.379       .  D
C1354      C1828   1.483       .  S
C1355      C1358   1.377       .  D
C1355      C1879   1.490       .  S
C1356      C1988   1.500       .  S
C1357      C1959   1.511       .  S
C1358      C1979   1.503       .  S
Zn1359     O1363   1.961       .  S
Zn1359     O1364   2.031       .  S
Zn1359     O1368   2.020       .  S
Zn1359     O1375   2.029       .  S
Zn1360     O1363   1.941       .  S
Zn1360     O1365   2.000       .  S
Zn1360     O1367   1.983       .  S
Zn1360     O1371   1.974       .  S
Zn1361     O1363   1.966       .  S
Zn1361     O1366   2.027       .  S
Zn1361     O1369   2.053       .  S
Zn1361     O1372   2.013       .  S
Zn1362     O1363   1.968       .  S
Zn1362     O1370   2.016       .  S
Zn1362     O1373   2.044       .  S
Zn1362     O1374   2.025       .  S
O1364      C1376   1.274       .  A
O1365      C1377   1.270       .  A
O1366      C1378   1.275       .  A
O1367      C1376   1.268       .  A
O1368      C1378   1.275       .  A
O1369      C1377   1.277       .  A
O1370      C1379   1.275       .  A
O1371      C1380   1.266       .  A
O1372      C1379   1.275       .  A
O1373      C1380   1.276       .  A
O1374      C1381   1.274       .  A
O1375      C1381   1.274       .  A
C1376      C1779   1.462       .  S
C1377      C1819   1.487       .  S
C1378      C1939   1.483       .  S
C1379      C1919   1.477       .  S
C1380      C1799   1.484       .  S
C1381      C1899   1.484       .  S
C1382      H1383   1.109       .  S
C1382      C1388   1.530       .  S
C1382      C2056   1.523   1_545  S
C1384      H1385   1.104       .  S
C1384      C2059   1.561   1_545  S
C1384      C1391   1.546       .  S
C1386      C1389   1.396       .  D
C1386      C1768   1.500       .  S
C1387      C2051   1.523       .  S
C1387      C1390   1.377       .  D
C1387      C1808   1.492       .  S
C1388      C1391   1.368       .  D
C1388      C1788   1.481       .  S
C1389      C1759   1.522       .  S
C1390      C2053   1.561       .  S
C1390      C1708   1.495       .  S
C1391      C1728   1.498       .  S
C1392      H1393   1.106       .  S
C1392      C1398   1.565       .  S
C1392      C1397   1.556       .  S
C1392      C1396   1.572       .  S
C1394      H1395   1.098       .  S
C1394      C1400   1.533       .  S
C1394      C1399   1.527       .  S
C1394      C1401   1.522       .  S
C1396      C1399   1.393       .  D
C1396      C1719   1.507       .  S
C1397      C1400   1.376       .  D
C1397      C1739   1.515       .  S
C1398      C1401   1.377       .  D
C1398      C1748   1.512       .  S
C1399      C1688   1.513       .  S
C1400      C1679   1.481       .  S
C1401      C1648   1.492       .  S
C1402      H1403   1.111       .  S
C1402      C1408   1.527       .  S
C1402      C1407   1.529       .  S
C1402      C1406   1.529       .  S
C1404      H1405   1.110       .  S
C1404      C1410   1.557       .  S
C1404      C1409   1.557       .  S
C1404      C1411   1.559       .  S
C1406      C1409   1.378       .  D
C1406      C1559   1.488       .  S
C1407      C1410   1.377       .  D
C1407      C1568   1.487       .  S
C1408      C1411   1.377       .  D
C1408      C1539   1.492       .  S
C1409      C1608   1.501       .  S
C1410      C1588   1.504       .  S
C1411      C1628   1.496       .  S
C1412      H1413   1.110       .  S
C1412      C1417   1.556   1_455  S
C1412      C2085   1.555   1_455  S
C1414      H1415   1.111       .  S
C1414      C1420   1.528   1_455  S
C1414      C2088   1.528   1_455  S
C1416      C2081   1.555   1_655  S
C1416      C1419   1.376       .  D
C1416      C1599   1.507       .  S
C1417      C1420   1.378       .  D
C1417      C1639   1.494       .  S
C1418      C1421   1.374       .  D
C1418      C1619   1.493       .  S
C1419      C2083   1.528   1_655  S
C1419      C1519   1.478       .  S
C1420      C1499   1.488       .  S
C1421      C1468   1.490       .  S
Zn1422     O1426   1.929       .  S
Zn1422     O1427   1.983       .  S
Zn1422     O1431   1.971       .  S
Zn1422     O1438   1.992       .  S
Zn1423     O1426   1.953       .  S
Zn1423     O1428   2.007       .  S
Zn1423     O1430   2.035       .  S
Zn1423     O1434   2.017       .  S
Zn1424     O1426   1.954       .  S
Zn1424     O1429   2.023       .  S
Zn1424     O1432   2.012       .  S
Zn1424     O1435   2.003       .  S
Zn1425     O1426   1.952       .  S
Zn1425     O1433   2.015       .  S
Zn1425     O1436   2.012       .  S
Zn1425     O1437   2.031       .  S
O1427      C1439   1.271       .  A
O1428      C1440   1.273       .  A
O1429      C1441   1.274       .  A
O1430      C1439   1.274       .  A
O1431      C1441   1.266       .  A
O1432      C1440   1.273       .  A
O1433      C1442   1.273       .  A
O1434      C1443   1.274       .  A
O1435      C1442   1.272       .  A
O1436      C1443   1.275       .  A
O1437      C1444   1.275       .  A
O1438      C1444   1.270       .  A
C1439      C1848   1.487       .  S
C1440      C1508   1.469       .  S
C1441      C1868   1.476       .  S
C1442      C1479   1.475       .  S
C1443      C1488   1.479       .  S
C1444      C1839   1.479       .  S
Zn1445     O1450   2.025       .  S
Zn1445     O1454   2.007   1_554  S
Zn1445     O2130   2.004   1_544  S
Zn1446     O1449   1.934       .  S
Zn1446     O2120   1.975       .  S
Zn1446     O1457   1.973       .  S
Zn1447     O2118   1.971       .  S
Zn1447     O1455   2.060       .  S
Zn1447     O2127   2.040   1_544  S
Zn1448     O1449   1.963       .  S
Zn1448     O1456   2.015   1_554  S
Zn1448     O1459   2.031       .  S
O1449     Zn2116   1.971       .  S
O1450      C1462   1.272       .  A
O1451     Zn2115   1.975       .  S
O1451      C1463   1.267       .  A
O1452      C1464   1.277       .  A
O1453      C1462   1.272       .  A
O1454      C1464   1.273       .  A
O1455      C1463   1.278       .  A
O1456      C1465   1.273       .  A
O1457      C1466   1.268       .  A
O1458     Zn2116   2.040   1_556  S
O1458      C1465   1.276       .  A
O1459      C1466   1.274       .  A
O1460      C1467   1.273       .  A
O1461     Zn2114   2.004   1_556  S
O1461      C1467   1.271       .  A
C1462      C1548   1.490       .  S
C1463      C1579   1.488       .  S
C1464      C1668   1.479       .  S
C1465      C1659   1.480       .  S
C1466      C1528   1.469       .  S
C1467      C1699   1.479       .  S
C1468      C1469   1.412       .  A
C1468      C1473   1.408       .  A
C1469      C1470   1.392       .  A
C1469     Br2154   1.907   1_545  S
C1470      C1471   1.396       .  A
C1470      H1474   1.084       .  S
C1471      C1475   1.469       .  S
C1471      C1472   1.404       .  A
C1472      C1473   1.398       .  A
C1472     Br1484   1.916       .  S
C1473      H1476   1.083       .  S
C1475      C1477   1.399       .  A
C1475      C1481   1.406       .  A
C1477      C1478   1.396       .  A
C1477      H1482   1.084       .  S
C1478      C1479   1.414       .  A
C1478     Br1486   1.922       .  S
C1479      C1480   1.405       .  A
C1480      C1481   1.399       .  A
C1480      H1483   1.083       .  S
C1481     Br1487   1.919       .  S
Br1485     C2138   1.907       .  S
C1488      C1489   1.414       .  A
C1488      C1493   1.406       .  A
C1489      C1490   1.401       .  A
C1489     Br1505   1.921       .  S
C1490      C1491   1.402       .  A
C1490      H1494   1.084       .  S
C1491      C1495   1.473       .  S
C1491      C1492   1.404       .  A
C1492      C1493   1.394       .  A
C1492     Br1504   1.921       .  S
C1493      H1496   1.083       .  S
C1495      C1497   1.400       .  A
C1495      C1501   1.405       .  A
C1497      C1498   1.398       .  A
C1497      H1502   1.084       .  S
C1498      C1499   1.416       .  A
C1499      C1500   1.405       .  A
C1500      C1501   1.395       .  A
C1500      H1503   1.084       .  S
C1501     Br1507   1.919       .  S
C1508      C1509   1.410       .  A
C1508      C1513   1.403       .  A
C1509      C1510   1.397       .  A
C1509     Br1525   1.921       .  S
C1510      C1511   1.400       .  A
C1510      H1514   1.084       .  S
C1511      C1515   1.470       .  S
C1511      C1512   1.407       .  A
C1512      C1513   1.398       .  A
C1512     Br1524   1.919       .  S
C1513      H1516   1.083       .  S
C1515      C1517   1.399       .  A
C1515      C1521   1.406       .  A
C1517      C1518   1.394       .  A
C1517      H1522   1.084       .  S
C1518      C1519   1.407       .  A
C1519      C1520   1.403       .  A
C1520      C1521   1.398       .  A
C1520      H2192   1.083   1_545  S
C1521     Br2196   1.917       .  S
H1523      C2189   1.083       .  S
Br1527     C2190   1.917       .  S
C1528      C1529   1.411       .  A
C1528      C1533   1.403       .  A
C1529      C1530   1.394       .  A
C1529     Br1545   1.923       .  S
C1530      C1531   1.400       .  A
C1530      H1534   1.084       .  S
C1531      C1535   1.473       .  S
C1531      C1532   1.409       .  A
C1532      C1533   1.400       .  A
C1532     Br1544   1.918       .  S
C1533      H1536   1.083       .  S
C1535      C1537   1.395       .  A
C1535      C1541   1.407       .  A
C1537      C1538   1.393       .  A
C1537      H1542   1.084       .  S
C1538      C1539   1.414       .  A
C1538     Br1546   1.912       .  S
C1539      C1540   1.408       .  A
C1540      C1541   1.401       .  A
C1540      H1543   1.083       .  S
C1541     Br1547   1.918       .  S
C1548      C1549   1.418       .  A
C1548      C1553   1.410       .  A
C1549      C1550   1.400       .  A
C1549     Br1565   1.921       .  S
C1550      C1551   1.401       .  A
C1550      H1554   1.084       .  S
C1551      C1555   1.476       .  S
C1551      C1552   1.404       .  A
C1552      C1553   1.398       .  A
C1552     Br1564   1.918       .  S
C1553      H1556   1.083       .  S
C1555      C1557   1.399       .  A
C1555      C1561   1.406       .  A
C1557      C1558   1.396       .  A
C1557      H1562   1.084       .  S
C1558      C1559   1.415       .  A
C1558     Br1566   1.915       .  S
C1559      C1560   1.404       .  A
C1560      C1561   1.398       .  A
C1560      H1563   1.084       .  S
C1561     Br1567   1.917       .  S
C1568      C1569   1.411       .  A
C1568      C1573   1.405       .  A
C1569      C1570   1.394       .  A
C1569     Br1585   1.908       .  S
C1570      C1571   1.397       .  A
C1570      H1574   1.084       .  S
C1571      C1575   1.474       .  S
C1571      C1572   1.407       .  A
C1572      C1573   1.401       .  A
C1572     Br1584   1.916       .  S
C1573      H1576   1.083       .  S
C1575      C1577   1.396       .  A
C1575      C1581   1.407       .  A
C1577      C1578   1.395       .  A
C1577      H1582   1.084       .  S
C1578      C1579   1.421       .  A
C1578     Br1586   1.925       .  S
C1579      C1580   1.408       .  A
C1580      C1581   1.403       .  A
C1580      H1583   1.083       .  S
C1581     Br1587   1.918       .  S
C1588      C1589   1.414       .  A
C1588      C1593   1.409       .  A
C1589      C1590   1.405       .  A
C1589     Br1605   1.911       .  S
C1590      C1591   1.403       .  A
C1590      H1594   1.084       .  S
C1591      C1595   1.494       .  S
C1591      C1592   1.410       .  A
C1592      C1593   1.405       .  A
C1592     Br1604   1.918       .  S
C1593      H1596   1.083       .  S
C1595      C1597   1.407       .  A
C1595      C1601   1.407       .  A
C1597      C1598   1.409       .  A
C1597      H1602   1.083       .  S
C1598      C1599   1.413       .  A
C1598     Br2275   1.915   1_545  S
C1599      C1600   1.409       .  A
C1600      C1601   1.400       .  A
C1600      H1603   1.082   1_655  S
C1601     Br1607   1.918       .  S
Br1606     C2267   1.915       .  S
C1608      C1609   1.413       .  A
C1608      C1613   1.408       .  A
C1609      C1610   1.407       .  A
C1609     Br1625   1.916       .  S
C1610      C1611   1.406       .  A
C1610      H1614   1.083       .  S
C1611      C1615   1.485       .  S
C1611      C1612   1.405       .  A
C1612      C1613   1.396       .  A
C1612     Br1624   1.918       .  S
C1613      H1616   1.083       .  S
C1615      C1617   1.406       .  A
C1615      C1621   1.406       .  A
C1617      C1618   1.405       .  A
C1617      H1622   1.083       .  S
C1618      C1619   1.410       .  A
C1618     Br1626   1.915       .  S
C1619      C1620   1.408       .  A
C1620      C1621   1.399       .  A
C1620      H1623   1.084   1_545  S
C1621     Br1627   1.918       .  S
C1628      C1629   1.414       .  A
C1628      C1633   1.405       .  A
C1629      C1630   1.395       .  A
C1629     Br1645   1.912       .  S
C1630      C1631   1.398       .  A
C1630      H1634   1.084       .  S
C1631      C1635   1.490       .  S
C1631      C1632   1.414       .  A
C1632      C1633   1.409       .  A
C1632     Br1644   1.918       .  S
C1633      H1636   1.083       .  S
C1635      C1637   1.403       .  A
C1635      C1641   1.413       .  A
C1637      C1638   1.399       .  A
C1637      H1642   1.084       .  S
C1638      C1639   1.414       .  A
C1638     Br1646   1.921       .  S
C1639      C1640   1.403       .  A
C1640      C1641   1.405       .  A
C1640      H1643   1.083   1_655  S
C1641     Br1647   1.916       .  S
C1648      C1649   1.410       .  A
C1648      C1653   1.404       .  A
C1649      C1650   1.398       .  A
C1649     Br1665   1.908       .  S
C1650      C1651   1.400       .  A
C1650      H1654   1.084       .  S
C1651      C1655   1.482       .  S
C1651      C1652   1.410       .  A
C1652      C1653   1.402       .  A
C1652     Br1664   1.917       .  S
C1653      H1656   1.084       .  S
C1655      C1657   1.405       .  A
C1655      C1661   1.407       .  A
C1657      C1658   1.401       .  A
C1657      H1662   1.084       .  S
C1658      C1659   1.410       .  A
C1658     Br1666   1.919       .  S
C1659      C1660   1.406       .  A
C1660      C1661   1.401       .  A
C1660      H1663   1.084       .  S
C1661     Br1667   1.919       .  S
C1668      C1669   1.412       .  A
C1668      C1673   1.405       .  A
C1669      C1670   1.399       .  A
C1669     Br1685   1.921       .  S
C1670      C1671   1.402       .  A
C1670      H1674   1.084       .  S
C1671      C1675   1.479       .  S
C1671      C1672   1.409       .  A
C1672      C1673   1.400       .  A
C1672     Br1684   1.920       .  S
C1673      H1676   1.084       .  S
C1675      C1677   1.400       .  A
C1675      C1681   1.410       .  A
C1677      C1678   1.395       .  A
C1677      H1682   1.084       .  S
C1678      C1679   1.414       .  A
C1678     Br1686   1.929       .  S
C1679      C1680   1.402       .  A
C1680      C1681   1.401       .  A
C1680      H1683   1.084       .  S
C1681     Br1687   1.918       .  S
C1688      C1689   1.433       .  A
C1688      C1693   1.408       .  A
C1689      C1690   1.396       .  A
C1689     Br1705   1.923       .  S
C1690      C1691   1.391       .  A
C1690      H1694   1.084       .  S
C1691      C1695   1.470       .  S
C1691      C1692   1.399       .  A
C1692      C1693   1.396       .  A
C1692     Br1704   1.915       .  S
C1693      H1696   1.074       .  S
C1695      C1697   1.399       .  A
C1695      C1701   1.405       .  A
C1697      C1698   1.398       .  A
C1697      H1702   1.084       .  S
C1698      C1699   1.416       .  A
C1698     Br2375   1.922       .  S
C1699      C1700   1.406       .  A
C1700      C1701   1.395       .  A
C1700      H1703   1.083       .  S
C1701     Br1707   1.921       .  S
Br1706     C2367   1.922   1_545  S
C1708      C1709   1.413       .  A
C1708      C1713   1.400       .  A
C1709      C1710   1.404       .  A
C1709     Br1725   1.918       .  S
C1710      C1711   1.405       .  A
C1710      H1714   1.083       .  S
C1711      C1715   1.501       .  S
C1711      C1712   1.416       .  A
C1712      C1713   1.404       .  A
C1712     Br1724   1.913       .  S
C1713      H1716   1.083       .  S
C1715      C1717   1.402       .  A
C1715      C1721   1.414       .  A
C1717      C1718   1.401       .  A
C1717      H1722   1.084       .  S
C1718      C1719   1.415       .  A
C1718     Br1726   1.908       .  S
C1719      C1720   1.408       .  A
C1720      C1721   1.410       .  A
C1720      H1723   1.082       .  S
C1721     Br1727   1.918       .  S
C1728      C1729   1.408       .  A
C1728      C1733   1.402       .  A
C1729      C1730   1.403       .  A
C1729     Br1745   1.911       .  S
C1730      C1731   1.408       .  A
C1730      H1734   1.083       .  S
C1731      C1735   1.505       .  S
C1731      C1732   1.418       .  A
C1732      C1733   1.407       .  A
C1732     Br1744   1.922       .  S
C1733      H1736   1.083       .  S
C1735      C1737   1.412       .  A
C1735      C1741   1.410       .  A
C1737      C1738   1.411       .  A
C1737      H1742   1.083       .  S
C1738      C1739   1.412       .  A
C1738     Br1746   1.912       .  S
C1739      C1740   1.405       .  A
C1740      C1741   1.399       .  A
C1740      H1743   1.067       .  S
C1741     Br1747   1.923       .  S
C1748      C1749   1.407       .  A
C1748      C1753   1.408       .  A
C1749      C1750   1.404       .  A
C1749     Br1765   1.912       .  S
C1750      C1751   1.412       .  A
C1750      H1754   1.078       .  S
C1751      C1755   1.516       .  S
C1751      C1752   1.421       .  A
C1752      C1753   1.403       .  A
C1752     Br1764   1.924       .  S
C1753      H1756   1.083       .  S
C1755      C1757   1.409       .  A
C1755      C1761   1.418       .  A
C1757      C1758   1.406       .  A
C1757      H1762   1.081       .  S
C1758      C1759   1.421       .  A
C1758     Br1766   1.919       .  S
C1759      C1760   1.411       .  A
C1760      C1761   1.404       .  A
C1760      H1763   1.081       .  S
C1761     Br1767   1.922       .  S
C1768      C1769   1.418       .  A
C1768      C1773   1.409       .  A
C1769      C1770   1.392       .  A
C1769     Br2454   1.912       .  S
C1770      C1771   1.396       .  A
C1770      H1774   1.084       .  S
C1771      C1775   1.482       .  S
C1771      C1772   1.410       .  A
C1772      C1773   1.402       .  A
C1772     Br1784   1.919       .  S
C1773      H1776   1.083       .  S
C1775      C1777   1.405       .  A
C1775      C1781   1.415       .  A
C1777      C1778   1.400       .  A
C1777      H1782   1.083       .  S
C1778      C1779   1.406       .  A
C1778     Br1786   1.918       .  S
C1779      C1780   1.396       .  A
C1780      C1781   1.395       .  A
C1780      H1783   1.084       .  S
C1781     Br1787   1.922       .  S
Br1785     C2438   1.912   1_545  S
C1788      C1789   1.413       .  A
C1788      C1793   1.404       .  A
C1789      C1790   1.395       .  A
C1790      C1791   1.399       .  A
C1790      H1794   1.084       .  S
C1791      C1795   1.471       .  S
C1791      C1792   1.405       .  A
C1792      C1793   1.399       .  A
C1792     Br1804   1.917       .  S
C1793      H1796   1.084       .  S
C1795      C1797   1.396       .  A
C1795      C1801   1.405       .  A
C1797      C1798   1.397       .  A
C1797      H1802   1.084       .  S
C1798      C1799   1.421       .  A
C1798     Br1806   1.925       .  S
C1799      C1800   1.406       .  A
C1800      C1801   1.399       .  A
C1800      H1803   1.083       .  S
C1801     Br1807   1.918       .  S
C1808      C1809   1.411       .  A
C1808      C1813   1.406       .  A
C1809      C1810   1.404       .  A
C1809     Br2494   1.912       .  S
C1810      C1811   1.403       .  A
C1810      H1814   1.083       .  S
C1811      C1815   1.480       .  S
C1811      C1812   1.405       .  A
C1812      C1813   1.396       .  A
C1812     Br1824   1.918       .  S
C1815      C1817   1.400       .  A
C1815      C1821   1.407       .  A
C1817      C1818   1.402       .  A
C1817      H1822   1.083       .  S
C1818      C1819   1.418       .  A
C1818     Br1826   1.922       .  S
C1819      C1820   1.405       .  A
C1820      C1821   1.400       .  A
C1820      H1823   1.083       .  S
C1821     Br1827   1.919       .  S
Br1825     C2478   1.912   1_545  S
C1828      C1829   1.407       .  A
C1828      C1833   1.405       .  A
C1829      C1830   1.393       .  A
C1829     Br1845   1.912       .  S
C1830      C1831   1.399       .  A
C1830      H1834   1.084       .  S
C1831      C1835   1.473       .  S
C1831      C1832   1.408       .  A
C1832      C1833   1.401       .  A
C1832     Br1844   1.917       .  S
C1833      H1836   1.083       .  S
C1835      C1837   1.400       .  A
C1835      C1841   1.406       .  A
C1837      C1838   1.396       .  A
C1837      H1842   1.084       .  S
C1838      C1839   1.414       .  A
C1838     Br1846   1.922       .  S
C1839      C1840   1.407       .  A
C1840      C1841   1.400       .  A
C1840      H1843   1.083       .  S
C1841     Br1847   1.918       .  S
C1848      C1849   1.416       .  A
C1848      C1853   1.410       .  A
C1849     Br1865   1.921   1_655  S
C1850      C1851   1.402       .  A
C1850      H1854   1.084       .  S
C1851      C1855   1.473       .  S
C1852      C1853   1.394       .  A
C1852     Br1864   1.921       .  S
C1853      H1856   1.083       .  S
C1855      C1857   1.402       .  A
C1855      C1861   1.404       .  A
C1857      C1858   1.396       .  A
C1857      H1862   1.084       .  S
C1858      C1859   1.411       .  A
C1858     Br1866   1.916       .  S
C1859      C1860   1.406       .  A
C1860      C1861   1.395       .  A
C1860      H1863   1.082       .  S
C1861     Br1867   1.918       .  S
C1868      C1869   1.418       .  A
C1868      C1873   1.404       .  A
C1869      C1870   1.395       .  A
C1869     Br1885   1.925       .  S
C1870      C2540   1.398   1_545  A
C1870      H1874   1.084       .  S
C1871      C1875   1.469       .  S
C1871      C2539   1.398       .  A
C1871      C1872   1.405       .  A
C1872      C2542   1.396       .  A
C1872     Br1884   1.919       .  S
C1873      C2541   1.396   1_545  A
C1873      H1876   1.083       .  S
C1875      C1877   1.395       .  A
C1875      C1881   1.404       .  A
C1877      C1878   1.392       .  A
C1877      H1882   1.084       .  S
C1878      C1879   1.414       .  A
C1878     Br1886   1.910       .  S
C1879      C1880   1.407       .  A
C1880      C1881   1.397       .  A
C1880      H1883   1.083       .  S
C1881     Br1887   1.917       .  S
C1888      C1889   1.416       .  A
C1888      C1893   1.409       .  A
C1889      C1890   1.397       .  A
C1889     Br1905   1.907       .  S
C1890      C1891   1.396       .  A
C1890      H1894   1.084       .  S
C1891      C1895   1.481       .  S
C1891      C1892   1.407       .  A
C1892      C1893   1.404       .  A
C1892     Br1904   1.916       .  S
C1893      H1896   1.083       .  S
C1895      C1897   1.402       .  A
C1895      C1901   1.407       .  A
C1897      C1898   1.403       .  A
C1897      H1902   1.083       .  S
C1898      C1899   1.414       .  A
C1898     Br1906   1.920       .  S
C1899      C1900   1.406       .  A
C1900      C1901   1.400       .  A
C1900      H1903   1.083       .  S
C1901     Br1907   1.919       .  S
C1908      C1909   1.416       .  A
C1908      C1913   1.409       .  A
C1909      C1910   1.394       .  A
C1909     Br1925   1.913       .  S
C1910      C1911   1.395       .  A
C1910      H1914   1.084       .  S
C1911      C1915   1.470       .  S
C1911      C1912   1.404       .  A
C1912      C1913   1.398       .  A
C1912     Br1924   1.915       .  S
C1913      H1916   1.083       .  S
C1915      C1921   1.405       .  A
C1917      C1918   1.397       .  A
C1917      H1922   1.084       .  S
C1918      C1919   1.414       .  A
C1918     Br1926   1.922       .  S
C1919      C1920   1.406       .  A
C1920      H1923   1.083       .  S
C1921     Br1927   1.918       .  S
C1928      C1929   1.414       .  A
C1928      C1933   1.406       .  A
C1929      C1930   1.398       .  A
C1929     Br1945   1.915       .  S
C1930      C1931   1.400       .  A
C1930      H1934   1.084       .  S
C1931      C1935   1.478       .  S
C1931      C1932   1.406       .  A
C1932      C1933   1.399       .  A
C1932     Br1944   1.917       .  S
C1933      H1936   1.084       .  S
C1935      C2606   1.401       .  A
C1935      C2610   1.406   1_545  A
C1937      C2604   1.401       .  A
C1937      C1938   1.399       .  A
C1937      H2611   1.084       .  S
C1938      C1939   1.413       .  A
C1938     Br1946   1.921       .  S
C1939      C1940   1.408       .  A
C1940      C1941   1.401       .  A
C1940      H1943   1.083       .  S
C1941      C2604   1.406       .  A
C1941     Br1947   1.919       .  S
H1942      C2606   1.084       .  S
C1948      C1949   1.414       .  A
C1948      C1953   1.409       .  A
C1949      C1950   1.406       .  A
C1949     Br1965   1.912       .  S
C1950      C1951   1.403       .  A
C1950      H1954   1.084       .  S
C1951      C1955   1.489       .  S
C1951      C1952   1.407       .  A
C1952      C1953   1.403       .  A
C1952     Br1964   1.917       .  S
C1953      H1956   1.083       .  S
C1955      C1957   1.405       .  A
C1955      C1961   1.404       .  A
C1957      C1958   1.408       .  A
C1957      H1962   1.084       .  S
C1958      C1959   1.416       .  A
C1958     Br1966   1.915       .  S
C1959      C1960   1.412       .  A
C1960      C1961   1.400       .  A
C1960      H1963   1.082       .  S
C1961     Br1967   1.919       .  S
C1968      C1969   1.416       .  A
C1968      C1973   1.405       .  A
C1969      C1970   1.403       .  A
C1969     Br1985   1.921       .  S
C1970      C1971   1.405       .  A
C1970      H1974   1.083       .  S
C1971      C2644   1.501   1_545  S
C1971      C1972   1.415       .  A
C1972      C1973   1.409       .  A
C1972     Br1984   1.915       .  S
C1973      H1976   1.083       .  S
C1975      C2640   1.501       .  S
C1975      C1977   1.404       .  A
C1975      C1981   1.416       .  A
C1977      C1978   1.402       .  A
C1977      H1982   1.083       .  S
C1978      C1979   1.414       .  A
C1978     Br1986   1.916       .  S
C1979      C1980   1.405       .  A
C1980      C1981   1.410       .  A
C1980      H1983   1.083       .  S
C1981     Br1987   1.918       .  S
C1988      C1989   1.413       .  A
C1988      C1993   1.403       .  A
C1989      C1990   1.404       .  A
C1989     Br2005   1.919       .  S
C1990      C1991   1.406       .  A
C1990      H1994   1.083       .  S
C1991      C1992   1.416       .  A
C1992      C1993   1.409       .  A
C1992     Br2004   1.915       .  S
C1993      H1996   1.084       .  S
C1995      C1997   1.403       .  A
C1995      C2001   1.416       .  A
C1997      C1998   1.403       .  A
C1998      C1999   1.417       .  A
C1998     Br2006   1.915       .  S
C1999      C2000   1.407       .  A
C2000      C2001   1.412       .  A
C2000      H2003   1.083       .  S
C2001     Br2007   1.918       .  S
C2008      H2009   1.110       .  S
C2008      C2014   1.531       .  S
C2008      C2013   1.533       .  S
C2008      C2012   1.533       .  S
C2010      H2011   1.110       .  S
C2010      C2016   1.559       .  S
C2010      C2015   1.560       .  S
C2010      C2017   1.561       .  S
C2012      C2015   1.380       .  D
C2012      C2577   1.493       .  S
C2013      C2016   1.378       .  D
C2013      C2597   1.491       .  S
C2014      C2017   1.380       .  D
C2014      C2557   1.502       .  S
C2015      C2668   1.510       .  S
C2016      C2637   1.504       .  S
C2017      C2617   1.503       .  S
C2018      H2019   1.111       .  S
C2018      C2024   1.529       .  S
C2018      C2023   1.523       .  S
C2018      C2022   1.526       .  S
C2020      H2021   1.108       .  S
C2020      C2026   1.562       .  S
C2020      C2025   1.561       .  S
C2020      C2027   1.556       .  S
C2022      C2025   1.377       .  D
C2022      C2528   1.484       .  S
C2023      C2026   1.379       .  D
C2023      C2497   1.483       .  S
C2024      C2027   1.377       .  D
C2024      C2548   1.490       .  S
C2025      C2657   1.500       .  S
C2026      C2628   1.511       .  S
C2027      C2648   1.503       .  S
Zn2028     O2032   1.961       .  S
Zn2028     O2033   2.031       .  S
Zn2028     O2037   2.020       .  S
Zn2028     O2044   2.029       .  S
Zn2029     O2032   1.941       .  S
Zn2029     O2034   2.000       .  S
Zn2029     O2036   1.983       .  S
Zn2029     O2040   1.974       .  S
Zn2030     O2032   1.966       .  S
Zn2030     O2035   2.027       .  S
Zn2030     O2038   2.053       .  S
Zn2030     O2041   2.013       .  S
Zn2031     O2032   1.968       .  S
Zn2031     O2039   2.016       .  S
Zn2031     O2042   2.044       .  S
Zn2031     O2043   2.025       .  S
O2033      C2045   1.274       .  A
O2034      C2046   1.270       .  A
O2035      C2047   1.275       .  A
O2036      C2045   1.268       .  A
O2037      C2047   1.275       .  A
O2038      C2046   1.277       .  A
O2039      C2048   1.275       .  A
O2040      C2049   1.266       .  A
O2041      C2048   1.275       .  A
O2042      C2049   1.276       .  A
O2043      C2050   1.274       .  A
O2044      C2050   1.274       .  A
C2045      C2448   1.462       .  S
C2046      C2488   1.487       .  S
C2047      C2608   1.483       .  S
C2048      C2588   1.477       .  S
C2049      C2468   1.484       .  S
C2050      C2568   1.484       .  S
C2051      H2052   1.109       .  S
C2051      C2057   1.530       .  S
C2053      H2054   1.104       .  S
C2053      C2060   1.546       .  S
C2055      C2058   1.396       .  D
C2055      C2437   1.500       .  S
C2056      C2059   1.377       .  D
C2056      C2477   1.492       .  S
C2057      C2060   1.368       .  D
C2057      C2457   1.481       .  S
C2058      C2428   1.522       .  S
C2059      C2377   1.495       .  S
C2060      C2397   1.498       .  S
C2061      H2062   1.106       .  S
C2061      C2067   1.565       .  S
C2061      C2066   1.556       .  S
C2061      C2065   1.572       .  S
C2063      H2064   1.098       .  S
C2063      C2069   1.533       .  S
C2063      C2068   1.527       .  S
C2063      C2070   1.522       .  S
C2065      C2068   1.393       .  D
C2065      C2388   1.507       .  S
C2066      C2069   1.376       .  D
C2066      C2408   1.515       .  S
C2067      C2070   1.377       .  D
C2067      C2417   1.512       .  S
C2068      C2357   1.513       .  S
C2069      C2348   1.481       .  S
C2070      C2317   1.492       .  S
C2071      H2072   1.111       .  S
C2071      C2077   1.527       .  S
C2071      C2076   1.529       .  S
C2071      C2075   1.529       .  S
C2073      H2074   1.110       .  S
C2073      C2079   1.557       .  S
C2073      C2078   1.557       .  S
C2073      C2080   1.559       .  S
C2075      C2078   1.378       .  D
C2075      C2228   1.488       .  S
C2076      C2079   1.377       .  D
C2076      C2237   1.487       .  S
C2077      C2080   1.377       .  D
C2077      C2208   1.492       .  S
C2078      C2277   1.501       .  S
C2079      C2257   1.504       .  S
C2080      C2297   1.496       .  S
C2081      H2082   1.110   1_545  S
C2081      C2086   1.556   1_445  S
C2083      H2084   1.111       .  S
C2083      C2089   1.528   1_445  S
C2085      C2088   1.376       .  D
C2085      C2268   1.507       .  S
C2086      C2089   1.378       .  D
C2086      C2308   1.494       .  S
C2087      C2090   1.374       .  D
C2087      C2288   1.493       .  S
C2088      C2188   1.478       .  S
C2089      C2168   1.488       .  S
C2090      C2137   1.490       .  S
Zn2091     O2095   1.929       .  S
Zn2091     O2096   1.983       .  S
Zn2091     O2100   1.971       .  S
Zn2091     O2107   1.992       .  S
Zn2092     O2095   1.953       .  S
Zn2092     O2097   2.007       .  S
Zn2092     O2099   2.035       .  S
Zn2092     O2103   2.017       .  S
Zn2093     O2095   1.954       .  S
Zn2093     O2098   2.023       .  S
Zn2093     O2101   2.012       .  S
Zn2093     O2104   2.003       .  S
Zn2094     O2095   1.952       .  S
Zn2094     O2102   2.015       .  S
Zn2094     O2105   2.012       .  S
Zn2094     O2106   2.031       .  S
O2096      C2108   1.271       .  A
O2097      C2109   1.273       .  A
O2098      C2110   1.274       .  A
O2099      C2108   1.274       .  A
O2100      C2110   1.266       .  A
O2101      C2109   1.273       .  A
O2102      C2111   1.273       .  A
O2103      C2112   1.274       .  A
O2104      C2111   1.272       .  A
O2105      C2112   1.275       .  A
O2106      C2113   1.275       .  A
O2107      C2113   1.270       .  A
C2108      C2517   1.487       .  S
C2109      C2177   1.469       .  S
C2110      C2537   1.476       .  S
C2111      C2148   1.475       .  S
C2112      C2157   1.479       .  S
C2113      C2508   1.479       .  S
Zn2114     O2119   2.025       .  S
Zn2114     O2123   2.007   1_554  S
Zn2115     O2118   1.934       .  S
Zn2115     O2126   1.973   1_545  S
Zn2116     O2124   2.060       .  S
Zn2117     O2118   1.963   1_565  S
Zn2117     O2125   2.015   1_554  S
Zn2117     O2128   2.031       .  S
O2119      C2131   1.272       .  A
O2120      C2132   1.267       .  A
O2121      C2133   1.277       .  A
O2122      C2131   1.272       .  A
O2123      C2133   1.273       .  A
O2124      C2132   1.278       .  A
O2125      C2134   1.273       .  A
O2126      C2135   1.268       .  A
O2127      C2134   1.276       .  A
O2128      C2135   1.274       .  A
O2129      C2136   1.273       .  A
O2130      C2136   1.271       .  A
C2131      C2217   1.490       .  S
C2132      C2248   1.488       .  S
C2133      C2337   1.479       .  S
C2134      C2328   1.480       .  S
C2135      C2197   1.469       .  S
C2136      C2368   1.479       .  S
C2137      C2138   1.412       .  A
C2137      C2142   1.408       .  A
C2138      C2139   1.392       .  A
C2139      C2140   1.396       .  A
C2139      H2143   1.084       .  S
C2140      C2144   1.469       .  S
C2140      C2141   1.404       .  A
C2141      C2142   1.398       .  A
C2141     Br2153   1.916       .  S
C2142      H2145   1.083       .  S
C2144      C2146   1.399       .  A
C2144      C2150   1.406       .  A
C2146      C2147   1.396       .  A
C2146      H2151   1.084       .  S
C2147      C2148   1.414       .  A
C2147     Br2155   1.922       .  S
C2148      C2149   1.405       .  A
C2149      C2150   1.399       .  A
C2149      H2152   1.083       .  S
C2150     Br2156   1.919       .  S
C2157      C2158   1.414       .  A
C2157      C2162   1.406       .  A
C2158      C2159   1.401       .  A
C2158     Br2174   1.921       .  S
C2159      C2160   1.402       .  A
C2159      H2163   1.084       .  S
C2160      C2164   1.473       .  S
C2160      C2161   1.404       .  A
C2161      C2162   1.394       .  A
C2161     Br2173   1.921       .  S
C2162      H2165   1.083       .  S
C2164      C2166   1.400       .  A
C2164      C2170   1.405       .  A
C2166      C2167   1.398       .  A
C2166      H2171   1.084       .  S
C2167      C2168   1.416       .  A
C2168      C2169   1.405       .  A
C2169      C2170   1.395       .  A
C2169      H2172   1.084       .  S
C2170     Br2176   1.919       .  S
C2177      C2178   1.410       .  A
C2177      C2182   1.403       .  A
C2178      C2179   1.397       .  A
C2178     Br2194   1.921       .  S
C2179      C2180   1.400       .  A
C2179      H2183   1.084       .  S
C2180      C2184   1.470       .  S
C2180      C2181   1.407       .  A
C2181      C2182   1.398       .  A
C2181     Br2193   1.919       .  S
C2182      H2185   1.083       .  S
C2184      C2186   1.399       .  A
C2184      C2190   1.406       .  A
C2186      C2187   1.394       .  A
C2186      H2191   1.084       .  S
C2187      C2188   1.407       .  A
C2188      C2189   1.403       .  A
C2189      C2190   1.398       .  A
C2197      C2198   1.411       .  A
C2197      C2202   1.403       .  A
C2198      C2199   1.394       .  A
C2198     Br2214   1.923       .  S
C2199      C2200   1.400       .  A
C2199      H2203   1.084       .  S
C2200      C2204   1.473       .  S
C2200      C2201   1.409       .  A
C2201      C2202   1.400       .  A
C2201     Br2213   1.918       .  S
C2202      H2205   1.083       .  S
C2204      C2206   1.395       .  A
C2204      C2210   1.407       .  A
C2206      C2207   1.393       .  A
C2206      H2211   1.084       .  S
C2207      C2208   1.414       .  A
C2207     Br2215   1.912       .  S
C2208      C2209   1.408       .  A
C2209      C2210   1.401       .  A
C2209      H2212   1.083       .  S
C2210     Br2216   1.918       .  S
C2217      C2218   1.418       .  A
C2217      C2222   1.410       .  A
C2218      C2219   1.400       .  A
C2218     Br2234   1.921       .  S
C2219      C2220   1.401       .  A
C2219      H2223   1.084       .  S
C2220      C2224   1.476       .  S
C2220      C2221   1.404       .  A
C2221      C2222   1.398       .  A
C2221     Br2233   1.918       .  S
C2222      H2225   1.083       .  S
C2224      C2226   1.399       .  A
C2224      C2230   1.406       .  A
C2226      C2227   1.396       .  A
C2226      H2231   1.084       .  S
C2227      C2228   1.415       .  A
C2227     Br2235   1.915       .  S
C2228      C2229   1.404       .  A
C2229      C2230   1.398       .  A
C2229      H2232   1.084       .  S
C2230     Br2236   1.917       .  S
C2237      C2238   1.411       .  A
C2237      C2242   1.405       .  A
C2238      C2239   1.394       .  A
C2238     Br2254   1.908       .  S
C2239      C2240   1.397       .  A
C2239      H2243   1.084       .  S
C2240      C2244   1.474       .  S
C2240      C2241   1.407       .  A
C2241      C2242   1.401       .  A
C2241     Br2253   1.916       .  S
C2242      H2245   1.083       .  S
C2244      C2246   1.396       .  A
C2244      C2250   1.407       .  A
C2246      C2247   1.395       .  A
C2246      H2251   1.084       .  S
C2247      C2248   1.421       .  A
C2247     Br2255   1.925       .  S
C2248      C2249   1.408       .  A
C2249      C2250   1.403       .  A
C2249      H2252   1.083       .  S
C2250     Br2256   1.918       .  S
C2257      C2258   1.414       .  A
C2257      C2262   1.409       .  A
C2258      C2259   1.405       .  A
C2258     Br2274   1.911       .  S
C2259      C2260   1.403       .  A
C2259      H2263   1.084       .  S
C2260      C2264   1.494       .  S
C2260      C2261   1.410       .  A
C2261      C2262   1.405       .  A
C2261     Br2273   1.918       .  S
C2262      H2265   1.083       .  S
C2264      C2266   1.407       .  A
C2264      C2270   1.407       .  A
C2266      C2267   1.409       .  A
C2266      H2271   1.083       .  S
C2267      C2268   1.413       .  A
C2268      C2269   1.409       .  A
C2269      C2270   1.400       .  A
C2269      H2272   1.082   1_655  S
C2270     Br2276   1.918       .  S
C2277      C2278   1.413       .  A
C2277      C2282   1.408       .  A
C2278      C2279   1.407       .  A
C2278     Br2294   1.916       .  S
C2279      C2280   1.406       .  A
C2279      H2283   1.083       .  S
C2280      C2284   1.485       .  S
C2280      C2281   1.405       .  A
C2281      C2282   1.396       .  A
C2281     Br2293   1.918       .  S
C2282      H2285   1.083       .  S
C2284      C2286   1.406       .  A
C2284      C2290   1.406       .  A
C2286      C2287   1.405       .  A
C2286      H2291   1.083       .  S
C2287      C2288   1.410       .  A
C2287     Br2295   1.915       .  S
C2288      C2289   1.408       .  A
C2289      C2290   1.399       .  A
C2289      H2292   1.084       .  S
C2290     Br2296   1.918       .  S
C2297      C2298   1.414       .  A
C2297      C2302   1.405       .  A
C2298      C2299   1.395       .  A
C2298     Br2314   1.912       .  S
C2299      C2300   1.398       .  A
C2299      H2303   1.084       .  S
C2300      C2304   1.490       .  S
C2300      C2301   1.414       .  A
C2301      C2302   1.409       .  A
C2301     Br2313   1.918       .  S
C2302      H2305   1.083       .  S
C2304      C2306   1.403       .  A
C2304      C2310   1.413       .  A
C2306      C2307   1.399       .  A
C2306      H2311   1.084       .  S
C2307      C2308   1.414       .  A
C2307     Br2315   1.921       .  S
C2308      C2309   1.403       .  A
C2309      C2310   1.405       .  A
C2309      H2312   1.083   1_655  S
C2310     Br2316   1.916       .  S
C2317      C2318   1.410       .  A
C2317      C2322   1.404       .  A
C2318      C2319   1.398       .  A
C2318     Br2334   1.908       .  S
C2319      C2320   1.400       .  A
C2319      H2323   1.084       .  S
C2320      C2324   1.482       .  S
C2320      C2321   1.410       .  A
C2321      C2322   1.402       .  A
C2321     Br2333   1.917       .  S
C2322      H2325   1.084       .  S
C2324      C2326   1.405       .  A
C2324      C2330   1.407       .  A
C2326      C2327   1.401       .  A
C2326      H2331   1.084       .  S
C2327      C2328   1.410       .  A
C2327     Br2335   1.919       .  S
C2328      C2329   1.406       .  A
C2329      C2330   1.401       .  A
C2329      H2332   1.084       .  S
C2330     Br2336   1.919       .  S
C2337      C2338   1.412       .  A
C2337      C2342   1.405       .  A
C2338      C2339   1.399       .  A
C2338     Br2354   1.921       .  S
C2339      C2340   1.402       .  A
C2339      H2343   1.084       .  S
C2340      C2344   1.479       .  S
C2340      C2341   1.409       .  A
C2341      C2342   1.400       .  A
C2341     Br2353   1.920       .  S
C2342      H2345   1.084       .  S
C2344      C2346   1.400       .  A
C2344      C2350   1.410       .  A
C2346      C2347   1.395       .  A
C2346      H2351   1.084       .  S
C2347      C2348   1.414       .  A
C2347     Br2355   1.929       .  S
C2348      C2349   1.402       .  A
C2349      C2350   1.401       .  A
C2349      H2352   1.084       .  S
C2350     Br2356   1.918       .  S
C2357      C2358   1.433       .  A
C2357      C2362   1.408       .  A
C2358      C2359   1.396       .  A
C2358     Br2374   1.923       .  S
C2359      C2360   1.391       .  A
C2359      H2363   1.084       .  S
C2360      C2364   1.470       .  S
C2360      C2361   1.399       .  A
C2361      C2362   1.396       .  A
C2361     Br2373   1.915       .  S
C2362      H2365   1.074       .  S
C2364      C2366   1.399       .  A
C2364      C2370   1.405       .  A
C2366      C2367   1.398       .  A
C2366      H2371   1.084       .  S
C2367      C2368   1.416       .  A
C2368      C2369   1.406       .  A
C2369      C2370   1.395       .  A
C2369      H2372   1.083       .  S
C2370     Br2376   1.921       .  S
C2377      C2378   1.413       .  A
C2377      C2382   1.400       .  A
C2378      C2379   1.404       .  A
C2378     Br2394   1.918       .  S
C2379      C2380   1.405       .  A
C2379      H2383   1.083       .  S
C2380      C2384   1.501       .  S
C2380      C2381   1.416       .  A
C2381      C2382   1.404       .  A
C2381     Br2393   1.913       .  S
C2382      H2385   1.083   1_565  S
C2384      C2386   1.402       .  A
C2384      C2390   1.414       .  A
C2386      C2387   1.401       .  A
C2386      H2391   1.084       .  S
C2387      C2388   1.415       .  A
C2387     Br2395   1.908       .  S
C2388      C2389   1.408       .  A
C2389      C2390   1.410       .  A
C2389      H2392   1.082       .  S
C2390     Br2396   1.918       .  S
C2397      C2398   1.408       .  A
C2397      C2402   1.402       .  A
C2398      C2399   1.403       .  A
C2398     Br2414   1.911       .  S
C2399      C2400   1.408       .  A
C2399      H2403   1.083       .  S
C2400      C2404   1.505       .  S
C2400      C2401   1.418       .  A
C2401      C2402   1.407       .  A
C2401     Br2413   1.922       .  S
C2402      H2405   1.083       .  S
C2404      C2406   1.412       .  A
C2404      C2410   1.410       .  A
C2406      C2407   1.411       .  A
C2406      H2411   1.083       .  S
C2407      C2408   1.412       .  A
C2407     Br2415   1.912       .  S
C2408      C2409   1.405       .  A
C2409      C2410   1.399       .  A
C2409      H2412   1.067       .  S
C2410     Br2416   1.923       .  S
C2417      C2418   1.407       .  A
C2417      C2422   1.408       .  A
C2418      C2419   1.404       .  A
C2418     Br2434   1.912       .  S
C2419      C2420   1.412       .  A
C2419      H2423   1.078       .  S
C2420      C2424   1.516       .  S
C2420      C2421   1.421       .  A
C2421      C2422   1.403       .  A
C2421     Br2433   1.924       .  S
C2422      H2425   1.083       .  S
C2424      C2426   1.409       .  A
C2424      C2430   1.418       .  A
C2426      C2427   1.406       .  A
C2426      H2431   1.081       .  S
C2427      C2428   1.421       .  A
C2427     Br2435   1.919       .  S
C2428      C2429   1.411       .  A
C2429      C2430   1.404       .  A
C2429      H2432   1.081       .  S
C2430     Br2436   1.922       .  S
C2437      C2438   1.418       .  A
C2437      C2442   1.409       .  A
C2438      C2439   1.392       .  A
C2439      C2440   1.396       .  A
C2439      H2443   1.084       .  S
C2440      C2444   1.482       .  S
C2440      C2441   1.410       .  A
C2441      C2442   1.402       .  A
C2441     Br2453   1.919       .  S
C2442      H2445   1.083       .  S
C2444      C2446   1.405       .  A
C2444      C2450   1.415       .  A
C2446      C2447   1.400       .  A
C2446      H2451   1.083       .  S
C2447      C2448   1.406       .  A
C2447     Br2455   1.918       .  S
C2448      C2449   1.396       .  A
C2449      C2450   1.395       .  A
C2449      H2452   1.084       .  S
C2450     Br2456   1.922       .  S
C2457      C2458   1.413       .  A
C2457      C2462   1.404       .  A
C2458      C2459   1.395       .  A
C2459      C2460   1.399       .  A
C2459      H2463   1.084       .  S
C2460      C2464   1.471       .  S
C2460      C2461   1.405       .  A
C2461      C2462   1.399       .  A
C2461     Br2473   1.917       .  S
C2462      H2465   1.084       .  S
C2464      C2466   1.396       .  A
C2464      C2470   1.405       .  A
C2466      C2467   1.397       .  A
C2466      H2471   1.084       .  S
C2467      C2468   1.421       .  A
C2467     Br2475   1.925       .  S
C2468      C2469   1.406       .  A
C2469      C2470   1.399       .  A
C2469      H2472   1.083       .  S
C2470     Br2476   1.918       .  S
C2477      C2478   1.411       .  A
C2477      C2482   1.406       .  A
C2478      C2479   1.404       .  A
C2479      C2480   1.403       .  A
C2479      H2483   1.083       .  S
C2480      C2484   1.480       .  S
C2480      C2481   1.405       .  A
C2481      C2482   1.396       .  A
C2481     Br2493   1.918       .  S
C2484      C2486   1.400       .  A
C2484      C2490   1.407       .  A
C2486      C2487   1.402       .  A
C2486      H2491   1.083       .  S
C2487      C2488   1.418       .  A
C2487     Br2495   1.922       .  S
C2488      C2489   1.405       .  A
C2489      C2490   1.400       .  A
C2489      H2492   1.083       .  S
C2490     Br2496   1.919       .  S
C2497      C2498   1.407       .  A
C2497      C2502   1.405       .  A
C2498      C2499   1.393       .  A
C2498     Br2514   1.912       .  S
C2499      C2500   1.399       .  A
C2499      H2503   1.084       .  S
C2500      C2504   1.473       .  S
C2500      C2501   1.408       .  A
C2501      C2502   1.401       .  A
C2501     Br2513   1.917       .  S
C2502      H2505   1.083       .  S
C2504      C2506   1.400       .  A
C2504      C2510   1.406       .  A
C2506      C2507   1.396       .  A
C2506      H2511   1.084       .  S
C2507      C2508   1.414       .  A
C2507     Br2515   1.922       .  S
C2508      C2509   1.407       .  A
C2509      C2510   1.400       .  A
C2509      H2512   1.083       .  S
C2510     Br2516   1.918       .  S
C2517      C2518   1.416       .  A
C2517      C2522   1.410       .  A
C2518     Br2534   1.921   1_655  S
C2519      C2520   1.402       .  A
C2519      H2523   1.084       .  S
C2520      C2524   1.473       .  S
C2521      C2522   1.394       .  A
C2521     Br2533   1.921       .  S
C2522      H2525   1.083       .  S
C2524      C2526   1.402       .  A
C2524      C2530   1.404       .  A
C2526      C2527   1.396       .  A
C2526      H2531   1.084       .  S
C2527      C2528   1.411       .  A
C2527     Br2535   1.916       .  S
C2528      C2529   1.406       .  A
C2529      C2530   1.395       .  A
C2529      H2532   1.082       .  S
C2530     Br2536   1.918       .  S
C2537      C2538   1.418       .  A
C2537      C2542   1.404       .  A
C2538      C2539   1.395       .  A
C2538     Br2554   1.925       .  S
C2539      H2543   1.084       .  S
C2540      C2544   1.469       .  S
C2540      C2541   1.405       .  A
C2541     Br2553   1.919       .  S
C2542      H2545   1.083       .  S
C2544      C2546   1.395       .  A
C2544      C2550   1.404       .  A
C2546      C2547   1.392       .  A
C2546      H2551   1.084       .  S
C2547      C2548   1.414       .  A
C2547     Br2555   1.910       .  S
C2548      C2549   1.407       .  A
C2549      C2550   1.397       .  A
C2549      H2552   1.083       .  S
C2550     Br2556   1.917       .  S
C2557      C2558   1.416       .  A
C2557      C2562   1.409       .  A
C2558      C2559   1.397       .  A
C2558     Br2574   1.907       .  S
C2559      C2560   1.396       .  A
C2559      H2563   1.084       .  S
C2560      C2564   1.481       .  S
C2560      C2561   1.407       .  A
C2561      C2562   1.404       .  A
C2561     Br2573   1.916       .  S
C2562      H2565   1.083       .  S
C2564      C2566   1.402       .  A
C2564      C2570   1.407       .  A
C2566      C2567   1.403       .  A
C2566      H2571   1.083       .  S
C2567      C2568   1.414       .  A
C2567     Br2575   1.920       .  S
C2568      C2569   1.406       .  A
C2569      C2570   1.400       .  A
C2569      H2572   1.083       .  S
C2570     Br2576   1.919       .  S
C2577      C2578   1.416       .  A
C2577      C2582   1.409       .  A
C2578      C2579   1.394       .  A
C2578     Br2594   1.913       .  S
C2579      C2580   1.395       .  A
C2579      H2583   1.084       .  S
C2580      C2584   1.470       .  S
C2580      C2581   1.404       .  A
C2581      C2582   1.398       .  A
C2581     Br2593   1.915       .  S
C2582      H2585   1.083       .  S
C2584      C2590   1.405       .  A
C2586      C2587   1.397       .  A
C2586      H2591   1.084       .  S
C2587      C2588   1.414       .  A
C2587     Br2595   1.922       .  S
C2588      C2589   1.406       .  A
C2589      H2592   1.083       .  S
C2590     Br2596   1.918       .  S
C2597      C2598   1.414       .  A
C2597      C2602   1.406       .  A
C2598      C2599   1.398       .  A
C2598     Br2614   1.915       .  S
C2599      C2600   1.400       .  A
C2599      H2603   1.084       .  S
C2600      C2604   1.478       .  S
C2600      C2601   1.406       .  A
C2601      C2602   1.399       .  A
C2601     Br2613   1.917       .  S
C2602      H2605   1.084       .  S
C2606      C2607   1.399   1_545  A
C2607      C2608   1.413       .  A
C2607     Br2615   1.921       .  S
C2608      C2609   1.408       .  A
C2609      C2610   1.401       .  A
C2609      H2612   1.083       .  S
C2610     Br2616   1.919       .  S
C2617      C2618   1.414       .  A
C2617      C2622   1.409       .  A
C2618      C2619   1.406       .  A
C2618     Br2634   1.912       .  S
C2619      C2620   1.403       .  A
C2619      H2623   1.084       .  S
C2620      C2624   1.489       .  S
C2620      C2621   1.407       .  A
C2621      C2622   1.403       .  A
C2621     Br2633   1.917       .  S
C2622      H2625   1.083       .  S
C2624      C2626   1.405       .  A
C2624      C2630   1.404       .  A
C2626      C2627   1.408       .  A
C2626      H2631   1.084       .  S
C2627      C2628   1.416       .  A
C2627     Br2635   1.915       .  S
C2628      C2629   1.412       .  A
C2629      C2630   1.400       .  A
C2629      H2632   1.082       .  S
C2630     Br2636   1.919       .  S
C2637      C2638   1.416       .  A
C2637      C2642   1.405       .  A
C2638      C2639   1.403       .  A
C2638     Br2654   1.921       .  S
C2639      C2640   1.405       .  A
C2639      H2643   1.083       .  S
C2640      C2641   1.415       .  A
C2641      C2642   1.409       .  A
C2641     Br2653   1.915       .  S
C2642      H2645   1.083       .  S
C2644      C2646   1.404       .  A
C2644      C2650   1.416       .  A
C2646      C2647   1.402       .  A
C2646      H2651   1.083       .  S
C2647      C2648   1.414       .  A
C2647     Br2655   1.916       .  S
C2648      C2649   1.405       .  A
C2649      C2650   1.410       .  A
C2649      H2652   1.083       .  S
C2650     Br2656   1.918       .  S
C2657      C2658   1.413       .  A
C2657      C2662   1.403       .  A
C2658      C2659   1.404       .  A
C2658     Br2674   1.919       .  S
C2659      C2660   1.406       .  A
C2659      H2663   1.083       .  S
C2660      C2661   1.416       .  A
C2661      C2662   1.409       .  A
C2661     Br2673   1.915       .  S
C2662      H2665   1.084       .  S
C2664      C2666   1.403       .  A
C2664      C2670   1.416       .  A
C2666      C2667   1.403       .  A
C2667      C2668   1.417       .  A
C2667     Br2675   1.915       .  S
C2668      C2669   1.407       .  A
C2669      C2670   1.412       .  A
C2669      H2672   1.083       .  S
C2670     Br2676   1.918       .  S
