geometry optimzed in LAMMPS
_audit_creation_date              2020-11-30 
_audit_creation_method            'lammps2cif' 
_symmetry_space_group_name_H-M    'P1' 
_symmetry_Int_Tables_number       1 
_symmetry_cell_setting            triclinic 
loop_ 
_symmetry_equiv_pos_as_xyz 
  x,y,z 
_cell_length_a                    59.22771367 
_cell_length_b                    59.19600833543104 
_cell_length_c                    43.16922979840816 
_cell_angle_alpha                 90.50820256945526 
_cell_angle_beta                  90.13591565338758 
_cell_angle_gamma                 119.7605520690901 
loop_ 
_atom_site_label 
_atom_site_type_symbol 
_atom_site_fract_x 
_atom_site_fract_y 
_atom_site_fract_z 
_atom_site_charge 
O1          O  0.19281260  0.26275670  0.11475353    -0.81400
C2          C  0.25980730  0.29545864  0.21958407     0.97900
O3          O  0.23950935  0.29694463  0.21584451    -0.70600
O4          O  0.24118668  0.32180477  0.16687096    -0.74200
Al5        Al  0.21640020  0.28956679  0.18192838     1.49000
C6          C  0.24443191  0.32911230  0.13923412     0.93200
O7          O  0.26594121  0.29065667  0.11666013    -0.80400
O8          O  0.21641715  0.22289466  0.15189495    -0.71200
Al9        Al  0.22945865  0.27696655  0.11777290     1.90100
O10         O  0.26748722  0.26229792  0.14798335    -0.73000
O11         O  0.21275186  0.23958624  0.20909797    -0.72900
O12         O  0.26393428  0.28041422  0.20269376    -0.78500
O13         O  0.19067358  0.25930724  0.20007258    -0.76700
O14         O  0.22832072  0.27299314  0.15884200    -1.12900
O15         O  0.19001654  0.28571696  0.15316666    -0.72000
C16         C  0.17984323  0.27025403  0.13047140     0.98700
C17         C  0.27751515  0.27913362  0.12681499     0.95100
Al18       Al  0.23919383  0.25291653  0.17652897     1.55600
O19         O  0.23636676  0.31242603  0.11759097    -0.76700
C20         C  0.19319449  0.24240710  0.21456429     0.99200
C21         C  0.21587444  0.22254220  0.12257235     0.94100
O22         O  0.22314961  0.24337207  0.10825497    -0.82000
O23         O  0.24253387  0.43714991  0.13110123    -0.81400
C24         C  0.20684072  0.47327564  0.23076037     0.97900
O25         O  0.21087741  0.45434279  0.23084072    -0.70600
O26         O  0.18452436  0.42453464  0.18465572    -0.74200
Al27       Al  0.21896875  0.43790716  0.19834911     1.49000
C28         C  0.17595830  0.41807604  0.15737661     0.93200
O29         O  0.20825525  0.47649048  0.12722215    -0.80400
O30         O  0.27822537  0.00643253  0.16160713    -0.73900
Al31       Al  0.22557006  0.45722912  0.13162889     1.90100
O32         O  0.23365595  0.01041909  0.15569861    -0.73000
O33         O  0.26619291  0.99066303  0.21991482    -0.72900
O34         O  0.21931870  0.99192950  0.21225592    -0.78500
O35         O  0.25207054  0.44870611  0.21436895    -0.76700
O36         O  0.23096868  0.46415742  0.17203260    -1.12900
O37         O  0.22408477  0.41466851  0.17253253    -0.72000
C38         C  0.23742355  0.41831049  0.14853015     0.98700
C39         C  0.21590054  0.99971740  0.13527644     0.95100
Al40       Al  0.24792238  0.99715090  0.18635672     1.55600
O41         O  0.19148073  0.42703816  0.13491943    -0.76700
C42         C  0.26828481  0.47064952  0.22518522     0.99200
C43         C  0.27848286  0.00213426  0.13288451     0.94100
O44         O  0.25794997  0.48544642  0.11959161    -0.82000
O45         O  0.06250361  0.30992702  0.13525197    -0.81400
C46         C  0.02547508  0.22905024  0.22481061     0.97900
O47         O  0.04694545  0.24969187  0.22359243    -0.70600
O48         O  0.07563369  0.25712396  0.17368477    -0.74200
Al49       Al  0.06287009  0.27718242  0.19520839     1.49000
C50         C  0.08144610  0.25994026  0.14520445     0.93200
O51         O  0.02097760  0.23684739  0.11963418    -0.80400
O52         O  0.49464183  0.27484419  0.16492576    -0.73900
Al53       Al  0.04117367  0.27288010  0.12931649     1.90100
O54         O  0.48973753  0.22652044  0.15189442    -0.73000
O55         O  0.51163139  0.27419648  0.22017989    -0.72900
O56         O  0.50718540  0.22583472  0.20705648    -0.78500
O57         O  0.05339042  0.29847044  0.21812173    -0.76700
O58         O  0.03562146  0.26704551  0.16993822    -1.12900
O59         O  0.08572629  0.30765250  0.17337557    -0.72000
C60         C  0.08209423  0.32072571  0.15316595     0.98700
C61         C  0.49949253  0.22032520  0.12962756     0.95100
Al62       Al  0.50368562  0.25166113  0.18460562     1.55600
O63         O  0.07075819  0.26853234  0.12727920    -0.76700
C64         C  0.03163833  0.29473077  0.22742989     0.99200
C65         C  0.49757182  0.28162265  0.13704727     0.94100
O66         O  0.01295384  0.27858816  0.12090143    -0.82000
O67         O  0.23282842  0.13788067  0.46122470    -0.81400
C68         C  0.19233117  0.06599349  0.06015830     0.97900
O69         O  0.21268405  0.08776200  0.05985465    -0.70600
O70         O  0.24010641  0.08640595  0.01350796    -0.74200
Al71       Al  0.23049381  0.11068422  0.02738794     1.49000
C72         C  0.24407628  0.08484473  0.48434427     0.93200
O73         O  0.18535773  0.06540618  0.45509563    -0.80400
O74         O  0.16248591  0.10862066  0.49453123    -0.73900
Al75       Al  0.20818625  0.10113303  0.46143221     1.90100
O76         O  0.15436625  0.05834462  0.48708257    -0.73000
O77         O  0.18109158  0.11076418  0.04895893    -0.72900
O78         O  0.17441318  0.06084271  0.04064627    -0.78500
O79         O  0.22322017  0.13597269  0.04316661    -0.76700
O80         O  0.20426370  0.09888368  0.00072882    -1.12900
O81         O  0.25507966  0.13649475  0.00213907    -0.72000
C82         C  0.25269948  0.14843097  0.47843141     0.98700
C83         C  0.16294286  0.05059823  0.46518010     0.95100
Al84       Al  0.17193470  0.08615266  0.01517604     1.55600
O85         O  0.23506809  0.09233691  0.46279606    -0.76700
C86         C  0.20177854  0.13206950  0.05378823     0.99200
C87         C  0.16769898  0.11551942  0.46657042     0.94100
O88         O  0.18265024  0.10998446  0.45190022    -0.82000
O89         O  0.35433808  0.08710159  0.46188951    -0.81400
C90         C  0.43290703  0.12643064  0.06082236     0.97900
O91         O  0.41143066  0.12564428  0.05957729    -0.70600
O92         O  0.40728459  0.15004714  0.01199916    -0.74200
Al93       Al  0.38598362  0.11650111  0.02903482     1.49000
C94         C  0.40468732  0.15558561  0.47784158     0.93200
O95         O  0.42783162  0.11831703  0.45061023    -0.80400
O96         O  0.39093088  0.05336802  0.49166249    -0.73900
Al97       Al  0.39144167  0.10305080  0.45864574     1.90100
O98         O  0.43796700  0.09779829  0.48547265    -0.73000
O99         O  0.38907596  0.06759982  0.05170042    -0.72900
O100        O  0.43755482  0.11240487  0.04275222    -0.78500
O101        O  0.36388184  0.08490923  0.04815677    -0.76700
O102        O  0.39767983  0.10115674  0.00303454    -1.12900
O103        O  0.35679453  0.11103102  0.00523167    -0.72000
C104        C  0.34174701  0.09311150  0.48054786     0.98700
C105        C  0.44351621  0.11181396  0.46175829     0.95100
Al106      Al  0.41287382  0.08360359  0.01768890     1.55600
O107        O  0.39662682  0.13763475  0.45777981    -0.76700
C108        C  0.36826790  0.06757736  0.05822833     0.99200
C109        C  0.38437917  0.05062233  0.46348837     0.94100
O110        O  0.38565189  0.06955597  0.44921265    -0.82000
O111        O  0.41844345  0.27210887  0.45672806    -0.81400
C112        C  0.36809199  0.29561282  0.05605096     0.97900
O113        O  0.37503289  0.27871155  0.05616198    -0.70600
O114        O  0.35506949  0.24948888  0.00678485    -0.74200
Al115      Al  0.38864243  0.26652926  0.02449415     1.49000
C116        C  0.34965312  0.24301821  0.47784846     0.93200
O117        O  0.37626120  0.30376946  0.45446125    -0.80400
O118        O  0.44433861  0.33792021  0.49589420    -0.73900
Al119      Al  0.39756629  0.28844921  0.45806040     1.90100
O120        O  0.39799210  0.33671338  0.48579447    -0.73000
O121        O  0.42781429  0.31979521  0.05245124    -0.72900
O122        O  0.37924048  0.31482580  0.03818474    -0.78500
O123        O  0.42059488  0.28007544  0.04462889    -0.76700
O124        O  0.39945228  0.29361969  0.99971092    -1.12900
O125        O  0.39991849  0.24816526  0.99941280    -0.72000
C126        C  0.41360103  0.25242048  0.47253267     0.98700
C127        C  0.38156458  0.32601272  0.46405990     0.95100
Al128      Al  0.41116395  0.32525702  0.01642562     1.55600
O129        O  0.36596353  0.25534840  0.45701397    -0.76700
C130        C  0.43200306  0.30135908  0.05904856     0.99200
C131        C  0.44681144  0.33711574  0.46689134     0.94100
O132        O  0.42853884  0.32047986  0.45007138    -0.82000
O133        O  0.40660263  0.46660339  0.30095087    -0.81400
C134        C  0.35859980  0.39316585  0.39251323     0.97900
O135        O  0.38064352  0.40729761  0.38124239    -0.70600
O136        O  0.41464101  0.43206537  0.33939016    -0.74200
Al137      Al  0.39329022  0.44028962  0.36472449     1.49000
C138        C  0.41135278  0.42012406  0.31396580     0.93200
O139        O  0.34371740  0.40166296  0.28427918    -0.80400
O140        O  0.32210685  0.42808037  0.31821659    -0.73900
Al141      Al  0.37419489  0.43375772  0.29704109     1.90100
O142        O  0.32512520  0.38320325  0.32783809    -0.73000
O143        O  0.34112097  0.44422331  0.37459338    -0.72900
O144        O  0.33975689  0.39680164  0.38602208    -0.78500
O145        O  0.37749326  0.45099735  0.39635147    -0.76700
O146        O  0.36739193  0.42943476  0.33746637    -1.12900
O147        O  0.40959114  0.47491602  0.35084534    -0.72000
C148        C  0.41776915  0.48175634  0.32374203     0.98700
C149        C  0.32794613  0.38157459  0.29907412     0.95100
Al150      Al  0.33464335  0.41430965  0.35071126     1.55600
O151        O  0.39209421  0.41474486  0.29685085    -0.76700
C152        C  0.35922788  0.45610853  0.39412541     0.99200
C153        C  0.33388615  0.44563897  0.29821385     0.94100
O154        O  0.35737155  0.45340618  0.29220821    -0.82000
O155        O  0.02338615  0.42550776  0.28765140    -0.81400
C156        C  0.09382906  0.46220292  0.38954426     0.97900
O157        O  0.07275250  0.46238640  0.38673445    -0.70600
O158        O  0.07027171  0.48600377  0.33817615    -0.74200
Al159      Al  0.04797441  0.45307352  0.35426564     1.49000
C160        C  0.07345837  0.49308004  0.31039640     0.93200
O161        O  0.09672942  0.45679807  0.28681795    -0.80400
O162        O  0.05185560  0.38849653  0.32346829    -0.73900
Al163      Al  0.06025729  0.44121704  0.28924385     1.90100
O164        O  0.10211834  0.43038925  0.31679955    -0.73000
O165        O  0.04975241  0.40554097  0.38096514    -0.72900
O166        O  0.09866249  0.44803502  0.37195129    -0.78500
O167        O  0.02446408  0.42203904  0.37336082    -0.76700
O168        O  0.06078259  0.43781835  0.33022154    -1.12900
O169        O  0.01996645  0.44697465  0.32735892    -0.72000
C170        C  0.01003388  0.43191200  0.30434524     0.98700
C171        C  0.11089997  0.44794255  0.29634574     0.95100
Al172      Al  0.07436065  0.41956833  0.34687688     1.55600
O173        O  0.06556279  0.47617337  0.28899862    -0.76700
C174        C  0.02951987  0.40671510  0.38774543     0.99200
C175        C  0.04932093  0.38739154  0.29429163     0.94100
O176        O  0.05521496  0.40783633  0.27959576    -0.82000
O177        O  0.08269713  0.10808237  0.29792557    -0.81400
C178        C  0.03833769  0.13562059  0.39679538     0.97900
O179        O  0.04702269  0.12015192  0.39835656    -0.70600
O180        O  0.02184287  0.08875804  0.35162960    -0.74200
Al181      Al  0.05678390  0.10553050  0.36508335     1.49000
C182        C  0.01481537  0.07991712  0.32455341     0.93200
O183        O  0.03957753  0.13915076  0.29430141    -0.80400
O184        O  0.11049581  0.17705793  0.32940101    -0.73900
Al185      Al  0.06142848  0.12431641  0.29831963     1.90100
O186        O  0.06271295  0.17426780  0.32225898    -0.73000
O187        O  0.09871767  0.15960737  0.38776149    -0.72900
O188        O  0.04849687  0.15421073  0.37794109    -0.78500
O189        O  0.09021644  0.11934566  0.38040791    -0.76700
O190        O  0.06608104  0.13135761  0.33875574    -1.12900
O191        O  0.06467303  0.08469661  0.33903993    -0.72000
C192        C  0.07817319  0.08908760  0.31508772     0.98700
C193        C  0.04526250  0.16201034  0.30185202     0.95100
Al194      Al  0.07908407  0.16373342  0.35338510     1.55600
O195        O  0.02974101  0.09072351  0.30182827    -0.76700
C196        C  0.10375013  0.14137276  0.39262416     0.99200
C197        C  0.11100675  0.17465267  0.30026062     0.94100
O198        O  0.09180301  0.15626350  0.28608674    -0.82000
C199        C  0.08512916  0.02172307  0.30437456    -0.05000
C200        C  0.09904965  0.03942169  0.32848724    -0.02100
C201        C  0.09813143  0.06251273  0.33151818     0.02900
C202        C  0.08701034  0.07022645  0.30766817    -0.05000
C203        C  0.07902038  0.05546719  0.27981264    -0.02100
C204        C  0.07811559  0.03109556  0.27814446     0.02900
C205        C  0.11325507  0.03330495  0.35124263     0.37500
C206        C  0.06876043  0.06365218  0.25445949     0.37500
C207        C  0.06944751  0.51559006  0.24965745     0.35900
C208        C  0.10516321  0.07561244  0.36138613     0.35900
N209        N  0.06357315  0.50380295  0.22665444    -0.38900
N210        N  0.11005613  0.08400455  0.38633047    -0.38900
N211        N  0.06042324  0.07011428  0.23429350    -0.38300
N212        N  0.12485911  0.02885292  0.36939277    -0.38300
C213        C  0.44274521  0.00606847  0.32011825    -0.05000
C214        C  0.44442505  0.02773147  0.30450974    -0.02100
C215        C  0.46802402  0.05188063  0.30520907     0.02900
C216        C  0.49001963  0.05414528  0.32091904    -0.05000
C217        C  0.48869883  0.03192456  0.33452300    -0.02100
C218        C  0.46527832  0.00810461  0.33413303     0.02900
C219        C  0.42190955  0.02534698  0.28823645     0.37500
C220        C  0.51150940  0.03322268  0.34897398     0.37500
C221        C  0.46484799  0.98559590  0.34793111     0.35900
C222        C  0.46933369  0.07458137  0.29102941     0.35900
N223        N  0.46569480  0.46830233  0.35829614    -0.38900
N224        N  0.47022878  0.09269713  0.27984585    -0.38900
N225        N  0.02900613  0.03376665  0.36153054    -0.38300
N226        N  0.40407572  0.02354918  0.27496378    -0.38300
C227        C  0.43215986  0.41530142  0.30309540    -0.05000
C228        C  0.43913806  0.39970822  0.32060354    -0.02100
C229        C  0.46370556  0.40188435  0.31638058     0.02900
C230        C  0.48157556  0.42043503  0.29571811    -0.05000
C231        C  0.47317792  0.43309227  0.27516901    -0.02100
C232        C  0.44835857  0.43048859  0.27875343     0.02900
C233        C  0.42154621  0.38237207  0.34381884     0.37500
C234        C  0.99274296  0.45331803  0.25576378     0.37500
C235        C  0.44061187  0.44539684  0.25935119     0.35900
C236        C  0.47087110  0.38547966  0.33366567     0.35900
N237        N  0.43449413  0.45732706  0.24384617    -0.38900
N238        N  0.47620153  0.37187434  0.34698454    -0.38900
N239        N  0.00704361  0.46758607  0.23779665    -0.38300
N240        N  0.40754270  0.36848944  0.36232332    -0.38300
C241        C  0.35621224  0.37296814  0.41430294    -0.05000
C242        C  0.36758250  0.38068399  0.44397442    -0.02100
C243        C  0.37298987  0.36401304  0.46169291     0.02900
C244        C  0.36967542  0.34042421  0.44858441    -0.05000
C245        C  0.35676285  0.33211223  0.41928211    -0.02100
C246        C  0.34930421  0.34800231  0.40292865     0.02900
C247        C  0.37581084  0.40678860  0.45536182     0.37500
C248        C  0.35255305  0.30820734  0.40445729     0.37500
C249        C  0.33596056  0.33931215  0.37327986     0.35900
C250        C  0.38273785  0.37197331  0.49309059     0.35900
N251        N  0.32509734  0.33200571  0.34983504    -0.38900
N252        N  0.39061762  0.37859890  0.51801749    -0.38900
N253        N  0.34937817  0.28928710  0.39239019    -0.38300
N254        N  0.38304642  0.42771425  0.46454490    -0.38300
C255        C  0.47068853  0.35674866  0.45136498    -0.05000
C256        C  0.48862862  0.34990343  0.43949181    -0.02100
C257        C  0.00856556  0.36607966  0.42125605     0.02900
C258        C  0.01116569  0.39037946  0.41278139    -0.05000
C259        C  0.99484554  0.39858736  0.42750439    -0.02100
C260        C  0.47356430  0.38123016  0.44463136     0.02900
C261        C  0.48558037  0.32465079  0.44672703     0.37500
C262        C  0.99813720  0.42427203  0.42227806     0.37500
C263        C  0.45535378  0.38851858  0.45732120     0.35900
C264        C  0.02613894  0.35780219  0.40918893     0.35900
N265        N  0.44100927  0.39461428  0.46723963    -0.38900
N266        N  0.04020918  0.35111618  0.39984968    -0.38900
N267        N  0.00046882  0.44462498  0.41820548    -0.38300
N268        N  0.48294733  0.30442312  0.45244554    -0.38300
C269        C  0.01499766  0.13035282  0.41572464    -0.05000
C270        C  0.01033186  0.15068155  0.42518085    -0.02100
C271        C  0.48704999  0.14465511  0.43981383     0.02900
C272        C  0.46819474  0.11863220  0.44582481    -0.05000
C273        C  0.47339545  0.09846602  0.43820976    -0.02100
C274        C  0.49688037  0.10404887  0.42392225     0.02900
C275        C  0.03078043  0.17755037  0.42277374     0.37500
C276        C  0.45417198  0.07150649  0.44441813     0.37500
C277        C  0.00031590  0.08249039  0.41662707     0.35900
C278        C  0.48241628  0.16550096  0.44957574     0.35900
N279        N  0.00297478  0.06460023  0.41252700    -0.38900
N280        N  0.47864120  0.18206273  0.45746606    -0.38900
N281        N  0.43913900  0.05000807  0.44938641    -0.38300
N282        N  0.04724666  0.19901292  0.42161250    -0.38300
C283        C  0.36143084  0.47880570  0.41177213    -0.05000
C284        C  0.35784835  0.47810802  0.44407354    -0.02100
C285        C  0.36578018  0.00123994  0.46151896     0.02900
C286        C  0.37583517  0.02542191  0.44602588    -0.05000
C287        C  0.37810301  0.02548608  0.41311973    -0.02100
C288        C  0.37065215  0.00218942  0.39652647     0.02900
C289        C  0.34580842  0.45327701  0.45962580     0.37500
C290        C  0.38968824  0.04958531  0.39582563     0.37500
C291        C  0.37285274  0.00264438  0.36301482     0.35900
C292        C  0.36297423  0.00003148  0.49491812     0.35900
N293        N  0.37435856  0.00291431  0.33630268    -0.38900
N294        N  0.35902666  0.49887626  0.52102173    -0.38900
N295        N  0.39899252  0.06866300  0.38183756    -0.38300
N296        N  0.33573791  0.43349307  0.47214682    -0.38300
C297        C  0.41480756  0.18324042  0.46865499    -0.05000
C298        C  0.40418580  0.18962670  0.44288983    -0.02100
C299        C  0.40768142  0.21496655  0.44051756     0.02900
C300        C  0.42219950  0.23389309  0.46332894    -0.05000
C301        C  0.43660217  0.22938786  0.99099887    -0.02100
C302        C  0.43363728  0.20440180  0.99462248     0.02900
C303        C  0.38785610  0.16991714  0.42030992     0.37500
C304        C  0.45306924  0.25033925  0.01225782     0.37500
C305        C  0.44803884  0.20030657  0.01901784     0.35900
C306        C  0.39352735  0.22056336  0.41717719     0.35900
N307        N  0.45961325  0.19729150  0.03859565    -0.38900
N308        N  0.38211681  0.22501609  0.39871632    -0.38900
N309        N  0.46627482  0.26703885  0.02917018    -0.38300
N310        N  0.37497410  0.15431616  0.40207576    -0.38300
C311        C  0.12543572  0.14440403  0.41269980    -0.05000
C312        C  0.12256977  0.14274997  0.44515959    -0.02100
C313        C  0.13775616  0.13542749  0.46355663     0.02900
C314        C  0.15578799  0.12933778  0.44938657    -0.05000
C315        C  0.16110949  0.13501300  0.41725288    -0.02100
C316        C  0.14518268  0.14111016  0.39900030     0.02900
C317        C  0.10201069  0.14584609  0.45916934     0.37500
C318        C  0.18215025  0.13357799  0.40176474     0.37500
C319        C  0.14626230  0.13943282  0.36544869     0.35900
C320        C  0.13447443  0.13410492  0.49686725     0.35900
N321        N  0.14647569  0.13666511  0.33888426    -0.38900
N322        N  0.14738918  0.14587577  0.02105244    -0.38900
N323        N  0.19877972  0.13242214  0.38916834    -0.38300
N324        N  0.08540690  0.14810404  0.47008929    -0.38300
C325        C  0.11304133  0.47998318  0.41316800    -0.05000
C326        C  0.13937697  0.99321214  0.40790040    -0.02100
C327        C  0.15626509  0.01513880  0.42615071     0.02900
C328        C  0.14625129  0.02430742  0.45015594    -0.05000
C329        C  0.12082636  0.50778018  0.45899981    -0.02100
C330        C  0.10411045  0.48577227  0.44081536     0.02900
C331        C  0.14986589  0.98558578  0.38210195     0.37500
C332        C  0.11030685  0.51343855  0.48644150     0.37500
C333        C  0.07749576  0.46893830  0.45073785     0.35900
C334        C  0.18389676  0.02816342  0.41940661     0.35900
N335        N  0.05636412  0.45550988  0.45878811    -0.38900
N336        N  0.20584931  0.03833994  0.41379305    -0.38900
N337        N  0.09953172  0.52318775  0.00061323    -0.38300
N338        N  0.15862244  0.97976577  0.36168917    -0.38300
C339        C  0.27732615  0.17195609  0.46963873    -0.05000
C340        C  0.27839559  0.19530097  0.46024677    -0.02100
C341        C  0.30443771  0.21658188  0.95722029     0.02900
C342        C  0.32537116  0.21891543  0.47027941    -0.05000
C343        C  0.32459308  0.19524100  0.47611710    -0.02100
C344        C  0.30084323  0.17198810  0.47579731     0.02900
C345        C  0.25821422  0.19043023  0.94058128     0.37500
C346        C  0.34789561  0.19458978  0.48523258     0.37500
C347        C  0.30098917  0.14841442  0.48434686     0.35900
C348        C  0.30509199  0.24010461  0.94683897     0.35900
N349        N  0.30249806  0.13065211  0.49239317    -0.38900
N350        N  0.30563243  0.25893662  0.93868739    -0.38900
N351        N  0.36547160  0.19260807  0.49324295    -0.38300
N352        N  0.24003853  0.18894607  0.92852822    -0.38300
C353        C  0.31312714  0.08195506  0.47771801    -0.05000
C354        C  0.30167023  0.08300019  0.44940656    -0.02100
C355        C  0.27689411  0.08117895  0.44960227     0.02900
C356        C  0.26247651  0.07506375  0.47755989    -0.05000
C357        C  0.27409110  0.06751360  0.00734431    -0.02100
C358        C  0.30067498  0.07588767  0.00916151     0.02900
C359        C  0.31631363  0.08872841  0.42089668     0.37500
C360        C  0.25761911  0.05510127  0.03388526     0.37500
C361        C  0.31189331  0.07979911  0.03995585     0.35900
C362        C  0.26776176  0.08797935  0.42195202     0.35900
N363        N  0.31919389  0.08336796  0.06538191    -0.38900
N364        N  0.26072604  0.09371402  0.39989826    -0.38900
N365        N  0.24478154  0.04525415  0.05520705    -0.38300
N366        N  0.32788888  0.09295642  0.39808940    -0.38300
C367        C  0.48186098  0.29228582  0.12263706    -0.05000
C368        C  0.45509125  0.28141509  0.12941340    -0.02100
C369        C  0.43907849  0.28695120  0.11034278     0.02900
C370        C  0.44962255  0.30335976  0.08452656    -0.05000
C371        C  0.47661600  0.31642883  0.07978555    -0.02100
C372        C  0.49274343  0.31118115  0.09899552     0.02900
C373        C  0.44341114  0.26290961  0.15429994     0.37500
C374        C  0.48744361  0.33343407  0.05338875     0.37500
C375        C  0.01999333  0.32475015  0.09410894     0.35900
C376        C  0.41129941  0.27434446  0.11602046     0.35900
N377        N  0.04213702  0.33593950  0.08967183    -0.38900
N378        N  0.38916426  0.26421222  0.12053722    -0.38900
N379        N  0.99560074  0.34673037  0.03250159    -0.38300
N380        N  0.43400329  0.24812275  0.17412344    -0.38300
C381        C  0.45256627  0.14574008  0.08285032    -0.05000
C382        C  0.44396519  0.15140589  0.11086782    -0.02100
C383        C  0.45961683  0.17496239  0.12696382     0.02900
C384        C  0.48448997  0.19341922  0.11534546    -0.05000
C385        C  0.49450892  0.18566724  0.08990776    -0.02100
C386        C  0.47849485  0.16212211  0.07358822     0.02900
C387        C  0.41829775  0.13339912  0.12279262     0.37500
C388        C  0.02079417  0.20220974  0.07966489     0.37500
C389        C  0.48821287  0.15584932  0.04590124     0.35900
C390        C  0.44940982  0.17975707  0.15533902     0.35900
N391        N  0.99569515  0.15205573  0.02281357    -0.38900
N392        N  0.44108401  0.18336962  0.17790687    -0.38900
N393        N  0.04203551  0.21504505  0.07159798    -0.38300
N394        N  0.39783734  0.11955573  0.13250181    -0.38300
C395        C  0.04062521  0.36249330  0.27623289    -0.05000
C396        C  0.04657580  0.36326459  0.24414644    -0.02100
C397        C  0.04022289  0.34018856  0.22783849     0.02900
C398        C  0.03073269  0.31654014  0.24358549    -0.05000
C399        C  0.02144902  0.31480089  0.27395605    -0.02100
C400        C  0.02596035  0.33768836  0.29012135     0.02900
C401        C  0.05964845  0.38754151  0.22725273     0.37500
C402        C  0.00594738  0.28946957  0.28773058     0.37500
C403        C  0.01380906  0.33535519  0.31987045     0.35900
C404        C  0.04193827  0.34048404  0.19428673     0.35900
N405        N  0.00337012  0.33317042  0.34319542    -0.38900
N406        N  0.04265685  0.34098974  0.16751764    -0.38900
N407        N  0.99296531  0.26924442  0.29850814    -0.38300
N408        N  0.06997835  0.40673514  0.21353485    -0.38300
C409        C  0.02316712  0.20868667  0.24656879    -0.05000
C410        C  0.01783062  0.18409653  0.23533238    -0.02100
C411        C  0.02282276  0.16756797  0.25417705     0.02900
C412        C  0.03305933  0.17549122  0.28480086    -0.05000
C413        C  0.03503134  0.19877046  0.29702650    -0.02100
C414        C  0.03062590  0.21540549  0.27783571     0.02900
C415        C  0.00959220  0.17684833  0.20334866     0.37500
C416        C  0.04257639  0.20646228  0.32904323     0.37500
C417        C  0.03509798  0.24026277  0.28996734     0.35900
C418        C  0.01956814  0.14363588  0.24050551     0.35900
N419        N  0.03905595  0.26018285  0.29966833    -0.38900
N420        N  0.01707812  0.12468645  0.22932267    -0.38900
N421        N  0.04876217  0.21303842  0.35446258    -0.38300
N422        N  0.50172750  0.17018414  0.17790857    -0.38300
C423        C  0.19142959  0.04667399  0.08287041    -0.05000
C424        C  0.18309598  0.02081434  0.07355092    -0.02100
C425        C  0.18928176  0.00480402  0.09173778     0.02900
C426        C  0.20493022  0.01482631  0.11912835    -0.05000
C427        C  0.21113489  0.04009658  0.12966758    -0.02100
C428        C  0.20403584  0.05557936  0.11196614     0.02900
C429        C  0.17019134  0.01124223  0.04376052     0.37500
C430        C  0.22520502  0.05085140  0.15857725     0.37500
C431        C  0.21080516  0.08137579  0.12333930     0.35900
C432        C  0.18099360  0.47868360  0.08014207     0.35900
N433        N  0.21657293  0.10200955  0.13244911    -0.38900
N434        N  0.17392304  0.45776546  0.07101048    -0.38900
N435        N  0.23621898  0.05954564  0.18167798    -0.38300
N436        N  0.16047940  0.50375610  0.01952274    -0.38300
C437        C  0.34751415  0.04652544  0.07663141    -0.05000
C438        C  0.32309908  0.03107620  0.06250211    -0.02100
C439        C  0.30081622  0.01659112  0.08061803     0.02900
C440        C  0.30275972  0.01664671  0.11364443    -0.05000
C441        C  0.32805047  0.03032781  0.12738046    -0.02100
C442        C  0.35029694  0.04475186  0.10873102     0.02900
C443        C  0.32092725  0.03041676  0.02889180     0.37500
C444        C  0.33157640  0.03018849  0.16061086     0.37500
C445        C  0.37615027  0.05758811  0.12237890     0.35900
C446        C  0.27601206  0.50327075  0.06463084     0.35900
N447        N  0.39686784  0.06737086  0.13302151    -0.38900
N448        N  0.25626422  0.49248459  0.05163195    -0.38900
N449        N  0.33470500  0.03043920  0.18712196    -0.38300
N450        N  0.31918006  0.02979332  0.00215178    -0.38300
C451        C  0.18579610  0.47201373  0.25141086    -0.05000
C452        C  0.17884114  0.45689667  0.27871751    -0.02100
C453        C  0.15482028  0.44924347  0.29353835     0.02900
C454        C  0.13765408  0.45775130  0.28242676    -0.05000
C455        C  0.14601073  0.47505361  0.25678693    -0.02100
C456        C  0.16944728  0.48158727  0.24120814     0.02900
C457        C  0.19587651  0.44801358  0.29116904     0.37500
C458        C  0.13090447  0.98675907  0.24572496     0.37500
C459        C  0.17551827  0.99698367  0.21341056     0.35900
C460        C  0.14772055  0.43157810  0.31945380     0.35900
N461        N  0.17901693  0.00835296  0.19064678    -0.38900
N462        N  0.14224193  0.41732912  0.33992821    -0.38900
N463        N  0.11861877  0.99542033  0.23605228    -0.38300
N464        N  0.20908819  0.44052088  0.30108795    -0.38300
C465        C  0.28998116  0.47200594  0.24392582    -0.05000
C466        C  0.30747295  0.46568750  0.22941673    -0.02100
C467        C  0.32226671  0.45775885  0.24722123     0.02900
C468        C  0.31985197  0.45624957  0.27993094    -0.05000
C469        C  0.30392027  0.46468898  0.29454926    -0.02100
C470        C  0.28943414  0.47302691  0.27654046     0.02900
C471        C  0.30900700  0.46582782  0.19582171     0.37500
C472        C  0.30225411  0.46462865  0.32804554     0.37500
C473        C  0.27377286  0.98244006  0.29151546     0.35900
C474        C  0.33836747  0.44919824  0.23140084     0.35900
N475        N  0.26159349  0.99040446  0.30334223    -0.38900
N476        N  0.35110691  0.44233762  0.21865659    -0.38900
N477        N  0.30111170  0.96482724  0.35486823    -0.38300
N478        N  0.31005141  0.46577064  0.16905098    -0.38300
C479        C  0.10164423  0.34892233  0.15161169    -0.05000
C480        C  0.11072326  0.36379191  0.17936232    -0.02100
C481        C  0.13153649  0.38931564  0.17865898     0.02900
C482        C  0.14792671  0.39794219  0.15264339    -0.05000
C483        C  0.13802842  0.38423735  0.12418749    -0.02100
C484        C  0.11389660  0.36063547  0.12351288     0.02900
C485        C  0.10089205  0.35290599  0.20958438     0.37500
C486        C  0.15267389  0.39353677  0.09580266     0.37500
C487        C  0.10256047  0.34810936  0.09413018     0.35900
C488        C  0.13590144  0.40632437  0.20509061     0.35900
N489        N  0.09346607  0.33885284  0.07034755    -0.38900
N490        N  0.13853385  0.41948458  0.22628988    -0.38900
N491        N  0.16427906  0.40065784  0.07303483    -0.38300
N492        N  0.09502896  0.34567006  0.23466418    -0.38300
C493        C  0.34608347  0.29182507  0.07657107    -0.05000
C494        C  0.32625075  0.26625833  0.08430917    -0.02100
C495        C  0.30479389  0.26240473  0.10224544     0.02900
C496        C  0.30207784  0.28381880  0.11177959    -0.05000
C497        C  0.32198737  0.30929871  0.10480763    -0.02100
C498        C  0.34425000  0.31330319  0.08822584     0.02900
C499        C  0.32695449  0.24334227  0.07323544     0.37500
C500        C  0.31981010  0.33153253  0.11516012     0.37500
C501        C  0.36580841  0.33953729  0.08477883     0.35900
C502        C  0.28489173  0.23600681  0.10955766     0.35900
N503        N  0.38316072  0.36048590  0.08267281    -0.38900
N504        N  0.26937879  0.21484883  0.11536091    -0.38900
N505        N  0.31800495  0.34921245  0.12343185    -0.38300
N506        N  0.32708226  0.22477798  0.06486384    -0.38300
C507        C  0.20843732  0.19825024  0.10395635    -0.05000
C508        C  0.21610358  0.20012922  0.07227103    -0.02100
C509        C  0.21194341  0.17787009  0.05573362     0.02900
C510        C  0.20112301  0.15367118  0.07035863    -0.05000
C511        C  0.19115482  0.15096035  0.10054418    -0.02100
C512        C  0.19476790  0.17316907  0.11736774     0.02900
C513        C  0.22937103  0.22482085  0.05622430     0.37500
C514        C  0.17739354  0.12542071  0.11435039     0.37500
C515        C  0.18421573  0.16991350  0.14833996     0.35900
C516        C  0.21820791  0.17967011  0.02298992     0.35900
N517        N  0.17574541  0.16723420  0.17302386    -0.38900
N518        N  0.22276979  0.18084108  0.99685334    -0.38900
N519        N  0.16610506  0.10500625  0.12529808    -0.38300
N520        N  0.23999408  0.24431619  0.04309506    -0.38300
C521        C  0.27893344  0.31278559  0.24351683    -0.05000
C522        C  0.26981728  0.31690726  0.27204652    -0.02100
C523        C  0.28614694  0.33840791  0.29122020     0.02900
C524        C  0.31196771  0.35618670  0.28201852    -0.05000
C525        C  0.32193099  0.35003108  0.25532222    -0.02100
C526        C  0.30551113  0.32839282  0.23627449     0.02900
C527        C  0.24323453  0.29917215  0.28136225     0.37500
C528        C  0.34903583  0.36607225  0.24691120     0.37500
C529        C  0.31569268  0.32341040  0.20810115     0.35900
C530        C  0.27558717  0.34264670  0.31955642     0.35900
N531        N  0.32397876  0.31947038  0.18574754    -0.38900
N532        N  0.26700793  0.34578044  0.34218550    -0.38900
N533        N  0.37058857  0.37874576  0.23987855    -0.38300
N534        N  0.22200784  0.28498179  0.28852580    -0.38300
C535        C  0.13319892  0.19437894  0.28138545    -0.05000
C536        C  0.12825008  0.20794156  0.25808091    -0.02100
C537        C  0.14838897  0.22547378  0.23871604     0.02900
C538        C  0.17290082  0.22640340  0.23840222    -0.05000
C539        C  0.17819253  0.21374325  0.26283866    -0.02100
C540        C  0.15909047  0.19984430  0.28561928     0.02900
C541        C  0.10284214  0.20565447  0.25522032     0.37500
C542        C  0.20366093  0.21611842  0.26597429     0.37500
C543        C  0.16716850  0.19438613  0.31486829     0.35900
C544        C  0.14400576  0.24396401  0.22152545     0.35900
N545        N  0.17504174  0.19219066  0.33851329    -0.38900
N546        N  0.14060805  0.25923323  0.20898753    -0.38900
N547        N  0.22390400  0.21779615  0.26849453    -0.38300
N548        N  0.08311195  0.20487522  0.25189221    -0.38300
C549        C  0.25483066  0.35729939  0.13366527    -0.05000
C550        C  0.26601385  0.37424397  0.15917962    -0.02100
C551        C  0.25932606  0.39344511  0.16486788     0.02900
C552        C  0.24692451  0.39999448  0.14139451    -0.05000
C553        C  0.24225874  0.38745803  0.11207091    -0.02100
C554        C  0.24602410  0.36578786  0.10829898     0.02900
C555        C  0.28233831  0.37033119  0.18113579     0.37500
C556        C  0.23071726  0.39463618  0.08711670     0.37500
C557        C  0.24039178  0.35203942  0.07887821     0.35900
C558        C  0.26216110  0.40326116  0.19632235     0.35900
N559        N  0.23634611  0.34124669  0.05526716    -0.38900
N560        N  0.26378094  0.40909100  0.22222234    -0.38900
N561        N  0.22136228  0.40018253  0.06718023    -0.38300
N562        N  0.29560164  0.36771303  0.19870669    -0.38300
C563        C  0.10295552  0.25605771  0.13297946    -0.05000
C564        C  0.11978544  0.27271400  0.10966112    -0.02100
C565        C  0.14479797  0.27581789  0.10612224     0.02900
C566        C  0.15211545  0.26067283  0.12365844    -0.05000
C567        C  0.13304820  0.23947182  0.14035946    -0.02100
C568        C  0.10869564  0.23765578  0.14605653     0.02900
C569        C  0.11185182  0.28677522  0.08920019     0.37500
C570        C  0.13887651  0.22001099  0.15196120     0.37500
C571        C  0.08967210  0.21692024  0.16505016     0.35900
C572        C  0.16315747  0.29486448  0.08487784     0.35900
N573        N  0.07442772  0.20023680  0.18005171    -0.38900
N574        N  0.17749274  0.30994546  0.06757836    -0.38900
N575        N  0.14355826  0.20433692  0.16064879    -0.38300
N576        N  0.10552994  0.29744948  0.07194828    -0.38300
O577        O  0.19590683  0.25958036  0.61715015    -0.81400
C578        C  0.26288220  0.29606702  0.72150407     0.97900
O579        O  0.24249760  0.29732493  0.71713869    -0.70600
O580        O  0.24330331  0.32081545  0.66726776    -0.74200
Al581      Al  0.21905641  0.28871797  0.68349268     1.49000
C582        C  0.24615170  0.32716071  0.63927269     0.93200
O583        O  0.26910339  0.28951216  0.62052400    -0.80400
O584        O  0.21839252  0.22184044  0.65739182    -0.71200
Al585      Al  0.23263648  0.27478038  0.62063871     1.90100
O586        O  0.27029137  0.26072374  0.65146669    -0.73000
O587        O  0.21663255  0.24033159  0.71385564    -0.72900
O588        O  0.26731689  0.28077428  0.70544859    -0.78500
O589        O  0.19379222  0.25880458  0.70261422    -0.76700
O590        O  0.23134885  0.27195272  0.66175078    -1.12900
O591        O  0.19243764  0.28330366  0.65426445    -0.72000
C592        C  0.18264447  0.26727234  0.63197705     0.98700
C593        C  0.28048625  0.27775929  0.63044697     0.95100
Al594      Al  0.24230137  0.25243198  0.68056322     1.55600
O595        O  0.23829070  0.30977504  0.61845983    -0.76700
C596        C  0.19677775  0.24278118  0.71838154     0.99200
C597        C  0.21761405  0.22049561  0.62810278     0.94100
O598        O  0.22758814  0.24116946  0.61278728    -0.82000
O599        O  0.23291001  0.42736670  0.62563547    -0.81400
C600        C  0.20396375  0.46529515  0.72748793     0.97900
O601        O  0.19790111  0.44425241  0.71374714    -0.70600
O602        O  0.18990849  0.41278002  0.66828974    -0.74200
Al603      Al  0.21966241  0.43527506  0.69258998     1.49000
C604        C  0.17846306  0.41637542  0.64578526     0.93200
O605        O  0.22118471  0.48524241  0.61848681    -0.80400
O606        O  0.27154718  0.01055309  0.65066880    -0.73900
Al607      Al  0.22735518  0.45693601  0.62655817     1.90100
O608        O  0.22242054  0.00276310  0.66432792    -0.73000
O609        O  0.27293488  0.99101376  0.70524523    -0.72900
O610        O  0.22482732  0.98663211  0.72064607    -0.78500
O611        O  0.24669153  0.45160506  0.72296413    -0.76700
O612        O  0.23113599  0.46227596  0.66757774    -1.12900
O613        O  0.24013747  0.42314192  0.67416444    -0.72000
C614        C  0.24112262  0.41797631  0.64609550     0.98700
C615        C  0.21635680  0.00007189  0.63592166     0.95100
Al616      Al  0.24666094  0.99505427  0.68387769     1.55600
O617        O  0.19051635  0.43555910  0.62831322    -0.76700
C618        C  0.26855882  0.47210236  0.72278688     0.99200
C619        C  0.27775562  0.00085734  0.62820067     0.94100
O620        O  0.26334536  0.47749815  0.61976391    -0.82000
O621        O  0.06608948  0.30831124  0.62990066    -0.81400
C622        C  0.03006218  0.23011429  0.72303777     0.97900
O623        O  0.05135264  0.25106591  0.72156722    -0.70600
O624        O  0.07981217  0.25737359  0.67190037    -0.74200
Al625      Al  0.06720769  0.27797959  0.69210160     1.49000
C626        C  0.08515072  0.25884514  0.64335003     0.93200
O627        O  0.02433934  0.23488788  0.61829815    -0.80400
O628        O  0.49525058  0.27331308  0.66525210    -0.73900
Al629      Al  0.04469384  0.27119896  0.62614204     1.90100
O630        O  0.49023455  0.22500297  0.65343884    -0.73000
O631        O  0.51188727  0.27295058  0.72095439    -0.72900
O632        O  0.50735919  0.22438048  0.70862314    -0.78500
O633        O  0.05789785  0.29992676  0.71396938    -0.76700
O634        O  0.03978265  0.26689489  0.66705648    -1.12900
O635        O  0.08970024  0.30787866  0.66878836    -0.72000
C636        C  0.08588287  0.31992583  0.64732959     0.98700
C637        C  0.49950831  0.21870371  0.63083489     0.95100
Al638      Al  0.50407222  0.25020640  0.68569895     1.55600
O639        O  0.07427146  0.26667120  0.62460487    -0.76700
C640        C  0.03621651  0.29564379  0.72419544     0.99200
C641        C  0.49853069  0.28001088  0.63730137     0.94100
O642        O  0.01621451  0.27677248  0.61753286    -0.82000
O643        O  0.23580666  0.13593119  0.95896056    -0.81400
C644        C  0.19218241  0.06568361  0.56165990     0.97900
O645        O  0.21269909  0.08714115  0.55975250    -0.70600
O646        O  0.23979967  0.08808631  0.51226043    -0.74200
Al647      Al  0.22928883  0.11115538  0.52827509     1.49000
C648        C  0.24515916  0.08281098  0.98606235     0.93200
O649        O  0.18682422  0.06377022  0.95457493    -0.80400
O650        O  0.16599657  0.10995782  0.99127911    -0.73900
Al651      Al  0.21042741  0.09954919  0.96004342     1.90100
O652        O  0.15561535  0.05891958  0.98495226    -0.73000
O653        O  0.17909688  0.10936608  0.55174753    -0.72900
O654        O  0.17370174  0.06023770  0.54285084    -0.78500
O655        O  0.22125235  0.13521221  0.54646961    -0.76700
O656        O  0.20249621  0.09928270  0.50237263    -1.12900
O657        O  0.25296679  0.13815306  0.50356055    -0.72000
C658        C  0.25545012  0.14642032  0.97649552     0.98700
C659        C  0.16404728  0.04994490  0.96424235     0.95100
Al660      Al  0.17015669  0.08531918  0.51762973     1.55600
O661        O  0.23664768  0.08989132  0.96352363    -0.76700
C662        C  0.19971285  0.13041055  0.55770468     0.99200
C663        C  0.17166387  0.11632135  0.96327134     0.94100
O664        O  0.18578539  0.10940599  0.94896704    -0.82000
O665        O  0.35656994  0.08746638  0.96603204    -0.81400
C666        C  0.43086623  0.12846680  0.55745563     0.97900
O667        O  0.41045803  0.12938699  0.55368194    -0.70600
O668        O  0.40327099  0.15017239  0.50611595    -0.74200
Al669      Al  0.38373799  0.11748964  0.52500502     1.49000
C670        C  0.40749563  0.15586382  0.98387768     0.93200
O671        O  0.42984075  0.11867560  0.95423370    -0.80400
O672        O  0.39095349  0.05219150  0.99430977    -0.73900
Al673      Al  0.39355280  0.10340173  0.96243816     1.90100
O674        O  0.43890345  0.09575455  0.98670004    -0.73000
O675        O  0.38708173  0.06812195  0.54798463    -0.72900
O676        O  0.43498058  0.11303760  0.54142223    -0.78500
O677        O  0.36332225  0.08712022  0.54714908    -0.76700
O678        O  0.39563070  0.10170991  0.49968575    -1.12900
O679        O  0.35330571  0.10909603  0.50218973    -0.72000
C680        C  0.34459489  0.09451124  0.98430080     0.98700
C681        C  0.44487134  0.11076330  0.96378884     0.95100
Al682      Al  0.41134495  0.08474296  0.51524985     1.55600
O683        O  0.39885321  0.13809334  0.96343806    -0.76700
C684        C  0.36733136  0.06932082  0.55629112     0.99200
C685        C  0.38503279  0.05035679  0.96589530     0.94100
O686        O  0.38759298  0.07002033  0.95202045    -0.82000
O687        O  0.41834663  0.27187039  0.95863811    -0.81400
C688        C  0.36910435  0.29357165  0.55652090     0.97900
O689        O  0.37588313  0.27654089  0.55590485    -0.70600
O690        O  0.35519583  0.24880037  0.50597771    -0.74200
Al691      Al  0.38896433  0.26481180  0.52310405     1.49000
C692        C  0.35005636  0.24313359  0.97866656     0.93200
O693        O  0.37677213  0.30460198  0.95294640    -0.80400
O694        O  0.44387049  0.33935316  0.99601523    -0.73900
Al695      Al  0.39779559  0.28885324  0.95851985     1.90100
O696        O  0.39745793  0.33758545  0.98453936    -0.73000
O697        O  0.42863534  0.31735913  0.55196317    -0.72900
O698        O  0.38020657  0.31305098  0.53904832    -0.78500
O699        O  0.42118077  0.27767964  0.54274132    -0.76700
O700        O  0.39978742  0.29242009  0.49927882    -1.12900
O701        O  0.39972698  0.24677049  0.49634947    -0.72000
C702        C  0.41354564  0.25274319  0.97559969     0.98700
C703        C  0.38158077  0.32679266  0.96234985     0.95100
Al704      Al  0.41185394  0.32371656  0.51681390     1.55600
O705        O  0.36618247  0.25589053  0.95785224    -0.76700
C706        C  0.43280553  0.29875586  0.55764565     0.99200
C707        C  0.44695666  0.33775385  0.96727361     0.94100
O708        O  0.42910146  0.32055045  0.95048891    -0.82000
O709        O  0.40724445  0.46930791  0.80189387    -0.81400
C710        C  0.35847978  0.39430375  0.89116026     0.97900
O711        O  0.38054549  0.40842752  0.87997640    -0.70600
O712        O  0.41535486  0.43452036  0.83964113    -0.74200
Al713      Al  0.39333968  0.44185837  0.86488347     1.49000
C714        C  0.41261800  0.42303362  0.81403039     0.93200
O715        O  0.34495280  0.40404839  0.78376665    -0.80400
O716        O  0.32264946  0.43009010  0.81742612    -0.73900
Al717      Al  0.37512973  0.43639466  0.79698873     1.90100
O718        O  0.32616013  0.38568313  0.82736005    -0.73000
O719        O  0.34130833  0.44609067  0.87410568    -0.72900
O720        O  0.33990432  0.39857261  0.88545140    -0.78500
O721        O  0.37690993  0.45163568  0.89678870    -0.76700
O722        O  0.36789600  0.43154514  0.83724082    -1.12900
O723        O  0.40952683  0.47669841  0.85204942    -0.72000
C724        C  0.41813704  0.48396038  0.82517229     0.98700
C725        C  0.32932314  0.38397256  0.79876166     0.95100
Al726      Al  0.33508228  0.41634573  0.85011302     1.55600
O727        O  0.39355301  0.41778342  0.79658052    -0.76700
C728        C  0.35897798  0.45722055  0.89432088     0.99200
C729        C  0.33446596  0.44810175  0.79793928     0.94100
O730        O  0.35802942  0.45594243  0.79231018    -0.82000
O731        O  0.02641205  0.42737352  0.78432236    -0.81400
C732        C  0.09409431  0.46097995  0.88910776     0.97900
O733        O  0.07346081  0.46174111  0.88509124    -0.70600
O734        O  0.07354386  0.48629351  0.83661248    -0.74200
Al735      Al  0.04996233  0.45353668  0.85170718     1.49000
C736        C  0.07767145  0.49379002  0.80904010     0.93200
O737        O  0.09980022  0.45536527  0.78499174    -0.80400
O738        O  0.05292897  0.38805132  0.82128118    -0.73900
Al739      Al  0.06326988  0.44155860  0.78703932     1.90100
O740        O  0.10334625  0.42926561  0.81773829    -0.73000
O741        O  0.04904930  0.40469833  0.87845519    -0.72900
O742        O  0.09890348  0.44650808  0.87207489    -0.78500
O743        O  0.02515000  0.42257766  0.87008957    -0.76700
O744        O  0.06268926  0.43779194  0.82820052    -1.12900
O745        O  0.02311632  0.44903632  0.82377240    -0.72000
C746        C  0.01317456  0.43422374  0.80060248     0.98700
C747        C  0.11295367  0.44598340  0.79652299     0.95100
Al748      Al  0.07489893  0.41867259  0.84581479     1.55600
O749        O  0.07040744  0.47723582  0.78721834    -0.76700
C750        C  0.02911315  0.40656079  0.88465253     0.99200
C751        C  0.05080039  0.38710545  0.79203678     0.94100
O752        O  0.05679015  0.40764061  0.77750380    -0.82000
O753        O  0.08453552  0.10748941  0.79937993    -0.81400
C754        C  0.04097727  0.13583592  0.89817107     0.97900
O755        O  0.05031833  0.12092503  0.90016282    -0.70600
O756        O  0.02461779  0.08901265  0.85400441    -0.74200
Al757      Al  0.05965922  0.10591407  0.86676513     1.49000
C758        C  0.01717040  0.08053204  0.82687277     0.93200
O759        O  0.04246095  0.13980718  0.79492558    -0.80400
O760        O  0.11279269  0.17703693  0.83078584    -0.73900
Al761      Al  0.06378695  0.12428179  0.79971361     1.90100
O762        O  0.06537574  0.17444900  0.82346196    -0.73000
O763        O  0.10139142  0.16011738  0.88881631    -0.72900
O764        O  0.05080950  0.15421392  0.87899417    -0.78500
O765        O  0.09340758  0.12007512  0.88114645    -0.76700
O766        O  0.06856232  0.13149430  0.84009641    -1.12900
O767        O  0.06706217  0.08458578  0.84085212    -0.72000
C768        C  0.08022394  0.08865984  0.81667091     0.98700
C769        C  0.04830765  0.16270209  0.80258842     0.95100
Al770      Al  0.08151905  0.16388493  0.85457930     1.55600
O771        O  0.03179525  0.09123752  0.80387118    -0.76700
C772        C  0.10720291  0.14233007  0.89272510     0.99200
C773        C  0.11358724  0.17422212  0.80179271     0.94100
O774        O  0.09453913  0.15573224  0.78752664    -0.82000
C775        C  0.08907457  0.02223419  0.80394948    -0.05000
C776        C  0.10233809  0.03951344  0.82870450    -0.02100
C777        C  0.10025815  0.06191999  0.83275784     0.02900
C778        C  0.08912683  0.06981557  0.80909249    -0.05000
C779        C  0.08195836  0.05578728  0.78068069    -0.02100
C780        C  0.08161078  0.03171370  0.77823622     0.02900
C781        C  0.11680622  0.03343935  0.85115157     0.37500
C782        C  0.07207834  0.06439958  0.75537282     0.37500
C783        C  0.07276847  0.51663138  0.74952075     0.35900
C784        C  0.10639265  0.07422642  0.86313185     0.35900
N785        N  0.06608209  0.50464251  0.72668670    -0.38900
N786        N  0.11055681  0.08228798  0.88825547    -0.38900
N787        N  0.06413864  0.07123391  0.73516224    -0.38300
N788        N  0.12862452  0.02898408  0.86900310    -0.38300
C789        C  0.44356159  0.00774778  0.82137503    -0.05000
C790        C  0.44630559  0.02952722  0.80499212    -0.02100
C791        C  0.47030251  0.05322830  0.80600745     0.02900
C792        C  0.49195169  0.05449526  0.82142623    -0.05000
C793        C  0.48972877  0.03196587  0.83513997    -0.02100
C794        C  0.46554584  0.00905662  0.83611670     0.02900
C795        C  0.42452033  0.02774300  0.78759599     0.37500
C796        C  0.51245584  0.03195608  0.84791867     0.37500
C797        C  0.46376227  0.98688925  0.85247177     0.35900
C798        C  0.47239075  0.07653541  0.79262194     0.35900
N799        N  0.46337680  0.47034830  0.86668133    -0.38900
N800        N  0.47396362  0.09523177  0.78230101    -0.38900
N801        N  0.03070705  0.03329399  0.86209593    -0.38300
N802        N  0.40731515  0.02638608  0.77331626    -0.38300
C803        C  0.43367568  0.41827881  0.80368214    -0.05000
C804        C  0.44091114  0.40320852  0.82189816    -0.02100
C805        C  0.46498138  0.40445227  0.81688645     0.02900
C806        C  0.48274224  0.42236458  0.79564327    -0.05000
C807        C  0.47437261  0.43506090  0.77504869    -0.02100
C808        C  0.44962110  0.43272611  0.77875294     0.02900
C809        C  0.42434765  0.38759510  0.84689923     0.37500
C810        C  0.99433240  0.45428120  0.75125979     0.37500
C811        C  0.44167989  0.44716263  0.75878688     0.35900
C812        C  0.47169726  0.38749940  0.83370902     0.35900
N813        N  0.43530943  0.45866045  0.74287439    -0.38900
N814        N  0.47667210  0.37339363  0.84645792    -0.38900
N815        N  0.00799821  0.46781562  0.73230173    -0.38300
N816        N  0.41139995  0.37526946  0.86709030    -0.38300
C817        C  0.35593521  0.37360101  0.91220648    -0.05000
C818        C  0.36587744  0.38057324  0.94255400    -0.02100
C819        C  0.37163214  0.36401376  0.96004382     0.02900
C820        C  0.36967928  0.34110343  0.94641157    -0.05000
C821        C  0.35826351  0.33354053  0.91626911    -0.02100
C822        C  0.35100774  0.34952073  0.89968887     0.02900
C823        C  0.37285571  0.40619144  0.95469913     0.37500
C824        C  0.35558855  0.31044888  0.90086535     0.37500
C825        C  0.34051310  0.34223543  0.86846210     0.35900
C826        C  0.38053621  0.37160264  0.99174989     0.35900
N827        N  0.33220294  0.33627577  0.84358673    -0.38900
N828        N  0.38779855  0.37815446  0.01687997    -0.38900
N829        N  0.35356631  0.29217368  0.88827115    -0.38300
N830        N  0.37916318  0.42681085  0.96430151    -0.38300
C831        C  0.47099190  0.35729467  0.95186769    -0.05000
C832        C  0.48950833  0.35072069  0.94140585    -0.02100
C833        C  0.00906084  0.36726427  0.92068291     0.02900
C834        C  0.01000864  0.39021370  0.90928806    -0.05000
C835        C  0.99212018  0.39746071  0.92171682    -0.02100
C836        C  0.47359536  0.38145525  0.94404355     0.02900
C837        C  0.48767091  0.32654167  0.95144765     0.37500
C838        C  0.99322101  0.42171903  0.91337873     0.37500
C839        C  0.45557620  0.38902783  0.95669755     0.35900
C840        C  0.02842159  0.36031307  0.91175869     0.35900
N841        N  0.44142166  0.39526983  0.96688542    -0.38900
N842        N  0.04398436  0.35477961  0.90505528    -0.38900
N843        N  0.99379524  0.44091275  0.90679378    -0.38300
N844        N  0.48613563  0.30728746  0.95971645    -0.38300
C845        C  0.01742326  0.13027245  0.91704489    -0.05000
C846        C  0.01141384  0.15010524  0.92442835    -0.02100
C847        C  0.48775562  0.14350203  0.94004498     0.02900
C848        C  0.46931306  0.11751876  0.94706735    -0.05000
C849        C  0.47462611  0.09743959  0.93928813    -0.02100
C850        C  0.49818734  0.10314807  0.92500800     0.02900
C851        C  0.03040066  0.17713541  0.91915735     0.37500
C852        C  0.45525262  0.07041244  0.94480574     0.37500
C853        C  0.00498362  0.08312594  0.92135644     0.35900
C854        C  0.48255827  0.16427866  0.94836715     0.35900
N855        N  0.00877823  0.06584007  0.91836700    -0.38900
N856        N  0.47826161  0.18076965  0.95491568    -0.38900
N857        N  0.43998141  0.04885265  0.94904801    -0.38300
N858        N  0.04564769  0.19880032  0.91558003    -0.38300
C859        C  0.36125011  0.47968194  0.91247130    -0.05000
C860        C  0.35606915  0.47812949  0.94446398    -0.02100
C861        C  0.36326573  0.00067959  0.96160393     0.02900
C862        C  0.37587942  0.02552075  0.94745231    -0.05000
C863        C  0.37980359  0.02662885  0.91476136    -0.02100
C864        C  0.37202512  0.00373664  0.89721234     0.02900
C865        C  0.34255713  0.45281715  0.95885470     0.37500
C866        C  0.39312025  0.05129682  0.89867970     0.37500
C867        C  0.37544118  0.00522156  0.86383943     0.35900
C868        C  0.35707275  0.99833240  0.99429627     0.35900
N869        N  0.37789021  0.00643811  0.83722634    -0.38900
N870        N  0.35134233  0.49677223  0.02077900    -0.38900
N871        N  0.40372444  0.07082928  0.88566244    -0.38300
N872        N  0.33141450  0.43261592  0.97031784    -0.38300
C873        C  0.41632341  0.18351558  0.97509772    -0.05000
C874        C  0.40572003  0.18931809  0.94872397    -0.02100
C875        C  0.40820943  0.21424067  0.94575520     0.02900
C876        C  0.42209194  0.23370740  0.96827598    -0.05000
C877        C  0.43705043  0.22901321  0.48490694    -0.02100
C878        C  0.43325118  0.20369656  0.48782844     0.02900
C879        C  0.39088458  0.16952366  0.92548436     0.37500
C880        C  0.45451798  0.24965190  0.50591820     0.37500
C881        C  0.44764575  0.19867901  0.51141104     0.35900
C882        C  0.39399023  0.21888641  0.92157732     0.35900
N883        N  0.45917280  0.19482526  0.53029981    -0.38900
N884        N  0.38248201  0.22241768  0.90234698    -0.38900
N885        N  0.46854373  0.26612168  0.52258923    -0.38300
N886        N  0.37929146  0.15385756  0.90671774    -0.38300
C887        C  0.13018704  0.14618488  0.91069525    -0.05000
C888        C  0.13054696  0.14800840  0.94326671    -0.02100
C889        C  0.14609998  0.14073467  0.96090983     0.02900
C890        C  0.16086305  0.13091911  0.94585946    -0.05000
C891        C  0.16380187  0.13374183  0.91311728    -0.02100
C892        C  0.14794611  0.14048548  0.89574581     0.02900
C893        C  0.11306455  0.15495827  0.95862680     0.37500
C894        C  0.18200971  0.12850826  0.89634569     0.37500
C895        C  0.14736048  0.13790688  0.86216097     0.35900
C896        C  0.14672919  0.14343549  0.99436301     0.35900
N897        N  0.14661997  0.13508769  0.83552651    -0.38900
N898        N  0.13194218  0.13336835  0.52349580    -0.38900
N899        N  0.19641021  0.12434730  0.88278410    -0.38300
N900        N  0.09901231  0.16039354  0.97082849    -0.38300
C901        C  0.11276704  0.47861271  0.91335923    -0.05000
C902        C  0.13988391  0.99090918  0.90958285    -0.02100
C903        C  0.15686514  0.01246444  0.92833069     0.02900
C904        C  0.14680210  0.02339166  0.95006696    -0.05000
C905        C  0.11986813  0.50889280  0.95637534    -0.02100
C906        C  0.10321241  0.48636161  0.93894862     0.02900
C907        C  0.15052650  0.98241512  0.88475586     0.37500
C908        C  0.10867692  0.51695391  0.98100860     0.37500
C909        C  0.07597067  0.47106937  0.94742991     0.35900
C910        C  0.18468945  0.02287763  0.92523238     0.35900
N911        N  0.05429325  0.45879317  0.95410130    -0.38900
N912        N  0.20682181  0.03086092  0.92293337    -0.38900
N913        N  0.10175256  0.51779417  0.50829465    -0.38300
N914        N  0.15914069  0.97578243  0.86494553    -0.38300
C915        C  0.28020060  0.16995425  0.96808503    -0.05000
C916        C  0.28111070  0.19226673  0.95518138    -0.02100
C917        C  0.30247522  0.21898182  0.46124871     0.02900
C918        C  0.32678867  0.21812182  0.97104959    -0.05000
C919        C  0.32665113  0.19521839  0.97980355    -0.02100
C920        C  0.30364184  0.17130860  0.97798570     0.02900
C921        C  0.25491560  0.19523616  0.45069319     0.37500
C922        C  0.34972818  0.19588912  0.99249355     0.37500
C923        C  0.30423154  0.14829623  0.98814402     0.35900
C924        C  0.30350949  0.24349005  0.45498881     0.35900
N925        N  0.30558015  0.13071154  0.99724435    -0.38900
N926        N  0.30437238  0.26311083  0.45021277    -0.38900
N927        N  0.36710261  0.19480184  0.00314445    -0.38300
N928        N  0.23639064  0.19539087  0.44242679    -0.38300
C929        C  0.31604677  0.08366666  0.98197887    -0.05000
C930        C  0.30397720  0.08268758  0.95331786    -0.02100
C931        C  0.27831425  0.07861491  0.95290595     0.02900
C932        C  0.26427290  0.07365906  0.98101054    -0.05000
C933        C  0.27099156  0.06614166  0.50260293    -0.02100
C934        C  0.29723918  0.07304515  0.50444303     0.02900
C935        C  0.31879192  0.08893529  0.92488269     0.37500
C936        C  0.25361005  0.05240122  0.52802926     0.37500
C937        C  0.30771332  0.07446821  0.53516643     0.35900
C938        C  0.26727012  0.08103150  0.92395938     0.35900
N939        N  0.31417183  0.07615676  0.56078902    -0.38900
N940        N  0.25860463  0.08301821  0.90076219    -0.38900
N941        N  0.23989385  0.04136552  0.54829945    -0.38300
N942        N  0.33058962  0.09388775  0.90218395    -0.38300
C943        C  0.48282080  0.29030347  0.62209382    -0.05000
C944        C  0.45599351  0.27932784  0.62856410    -0.02100
C945        C  0.43998540  0.28449477  0.60903455     0.02900
C946        C  0.45051442  0.30038780  0.58283115    -0.05000
C947        C  0.47751733  0.31338314  0.57806749    -0.02100
C948        C  0.49371315  0.30870594  0.59790103     0.02900
C949        C  0.44427151  0.26111205  0.65371885     0.37500
C950        C  0.48832542  0.33004962  0.55139089     0.37500
C951        C  0.02297554  0.32287927  0.58902498     0.35900
C952        C  0.41229389  0.27237479  0.61502999     0.35900
N953        N  0.04499743  0.33401214  0.58378657    -0.38900
N954        N  0.39025239  0.26271093  0.61996612    -0.38900
N955        N  0.99646265  0.34432279  0.52886650    -0.38300
N956        N  0.43487294  0.24653973  0.67374672    -0.38300
C957        C  0.44993737  0.14702495  0.58046031    -0.05000
C958        C  0.44064329  0.15385355  0.60711523    -0.02100
C959        C  0.45743712  0.17562905  0.62531020     0.02900
C960        C  0.48352570  0.19232156  0.61581833    -0.05000
C961        C  0.49345062  0.18377070  0.59110383    -0.02100
C962        C  0.47675073  0.16106690  0.57378139     0.02900
C963        C  0.41318658  0.13957985  0.61508332     0.37500
C964        C  0.02170343  0.19929860  0.57796277     0.37500
C965        C  0.48688659  0.15348792  0.54753995     0.35900
C966        C  0.44708300  0.18058010  0.65347771     0.35900
N967        N  0.99447434  0.14819690  0.52243369    -0.38900
N968        N  0.43862428  0.18424029  0.67590131    -0.38900
N969        N  0.04294224  0.21122182  0.56951125    -0.38300
N970        N  0.39132523  0.12902519  0.62124080    -0.38300
C971        C  0.04263698  0.36230013  0.77374474    -0.05000
C972        C  0.04784409  0.36322447  0.74134676    -0.02100
C973        C  0.04304579  0.34055524  0.72502216     0.02900
C974        C  0.03486811  0.31707850  0.74074097    -0.05000
C975        C  0.02626825  0.31498501  0.77151222    -0.02100
C976        C  0.02998069  0.33746529  0.78798354     0.02900
C977        C  0.05867188  0.38730818  0.72409315     0.37500
C978        C  0.01275785  0.28962906  0.78577998     0.37500
C979        C  0.01970099  0.33461544  0.81899224     0.35900
C980        C  0.04553997  0.34110176  0.69150151     0.35900
N981        N  0.01105018  0.33207197  0.84356500    -0.38900
N982        N  0.04714100  0.34164288  0.66477925    -0.38900
N983        N  0.00143333  0.26935169  0.79702037    -0.38300
N984        N  0.06723994  0.40630117  0.70999257    -0.38300
C985        C  0.02795094  0.21030800  0.74580134    -0.05000
C986        C  0.01994105  0.18452900  0.73635169    -0.02100
C987        C  0.02453472  0.16795876  0.75573511     0.02900
C988        C  0.03685042  0.17691381  0.78529783    -0.05000
C989        C  0.04155892  0.20170698  0.79600828    -0.02100
C990        C  0.03757270  0.21830087  0.77622424     0.02900
C991        C  0.00899547  0.17572364  0.70556516     0.37500
C992        C  0.05183200  0.21119898  0.82685974     0.37500
C993        C  0.04459528  0.24433586  0.78692205     0.35900
C994        C  0.01852481  0.14264445  0.74352149     0.35900
N995        N  0.05063644  0.26516280  0.79546756    -0.38900
N996        N  0.01387618  0.12262473  0.73336088    -0.38900
N997        N  0.06039116  0.21930625  0.85121119    -0.38300
N998        N  0.50138571  0.16872235  0.67935945    -0.38300
C999        C  0.19186160  0.04727335  0.58564188    -0.05000
C1000       C  0.17935259  0.02012846  0.57999104    -0.02100
C1001       C  0.18592549  0.00425396  0.59795880     0.02900
C1002       C  0.20505844  0.01530743  0.62174048    -0.05000
C1003       C  0.21502365  0.04175475  0.62987528    -0.02100
C1004       C  0.20837779  0.05755161  0.61217292     0.02900
C1005       C  0.16090797  0.00857160  0.55458933     0.37500
C1006       C  0.23377617  0.05354686  0.65503631     0.37500
C1007       C  0.22008583  0.08494914  0.62053557     0.35900
C1008       C  0.17300871  0.47666172  0.59198370     0.35900
N1009       N  0.23000313  0.10684735  0.62699859    -0.38900
N1010       N  0.16222934  0.45449802  0.58691413    -0.38900
N1011       N  0.24871248  0.06315976  0.67503296    -0.38300
N1012       N  0.14634397  0.49984218  0.53512041    -0.38300
C1013       C  0.34701030  0.04856995  0.57509511    -0.05000
C1014       C  0.32411599  0.02980984  0.56010258    -0.02100
C1015       C  0.30176882  0.01385528  0.57747204     0.02900
C1016       C  0.30198558  0.01696714  0.61019631    -0.05000
C1017       C  0.32542396  0.03538115  0.62513779    -0.02100
C1018       C  0.34812008  0.05030294  0.60762479     0.02900
C1019       C  0.32316651  0.02817686  0.52643604     0.37500
C1020       C  0.32629643  0.03954839  0.65837320     0.37500
C1021       C  0.37273988  0.06713041  0.62298231     0.35900
C1022       C  0.27780328  0.49748367  0.56087946     0.35900
N1023       N  0.39251018  0.07996707  0.63533451    -0.38900
N1024       N  0.25885480  0.48369517  0.54747165    -0.38900
N1025       N  0.32708943  0.04320550  0.68483487    -0.38300
N1026       N  0.32252356  0.02729115  0.49963864    -0.38300
C1027       C  0.18572301  0.46470767  0.75171630    -0.05000
C1028       C  0.17320529  0.44265288  0.77094394    -0.02100
C1029       C  0.14996105  0.43681882  0.78630534     0.02900
C1030       C  0.13955034  0.45382577  0.78407241    -0.05000
C1031       C  0.15431908  0.47780705  0.76842712    -0.02100
C1032       C  0.17705682  0.48301986  0.75199928     0.02900
C1033       C  0.18352077  0.42499463  0.77365783     0.37500
C1034       C  0.14594028  0.99761184  0.76876735     0.37500
C1035       C  0.18964317  0.00649674  0.73283630     0.35900
C1036       C  0.13611209  0.41222874  0.80239587     0.35900
N1037       N  0.19957770  0.02488385  0.71766149    -0.38900
N1038       N  0.12514870  0.39252950  0.81504024    -0.38900
N1039       N  0.13915023  0.01287913  0.76878493    -0.38300
N1040       N  0.19161606  0.41084499  0.77571819    -0.38300
C1041       C  0.28922030  0.47338391  0.74368376    -0.05000
C1042       C  0.31197326  0.47506158  0.73120262    -0.02100
C1043       C  0.32745605  0.46800761  0.74927783     0.02900
C1044       C  0.32037586  0.45930985  0.78028440    -0.05000
C1045       C  0.29898415  0.46033338  0.79349449    -0.02100
C1046       C  0.28374415  0.46758649  0.77533030     0.02900
C1047       C  0.31768275  0.48076156  0.69857846     0.37500
C1048       C  0.29221155  0.45360557  0.82566815     0.37500
C1049       C  0.26205476  0.96829273  0.78977231     0.35900
C1050       C  0.34921899  0.46749665  0.73455647     0.35900
N1051       N  0.24450615  0.96872930  0.80085670    -0.38900
N1052       N  0.36646401  0.46703909  0.72260903    -0.38900
N1053       N  0.28939160  0.95088331  0.85242957    -0.38300
N1054       N  0.32217159  0.48479948  0.67249206    -0.38300
C1055       C  0.10530652  0.34800271  0.64373815    -0.05000
C1056       C  0.11455987  0.36432848  0.67039700    -0.02100
C1057       C  0.13496033  0.38987793  0.66779486     0.02900
C1058       C  0.15048135  0.39739468  0.64132564    -0.05000
C1059       C  0.14050151  0.38259627  0.61387489    -0.02100
C1060       C  0.11684033  0.35851664  0.61475873     0.02900
C1061       C  0.10528607  0.35506618  0.70130145     0.37500
C1062       C  0.15476194  0.39173427  0.58525116     0.37500
C1063       C  0.10523528  0.34450207  0.58621409     0.35900
C1064       C  0.13931603  0.40883117  0.69183013     0.35900
N1065       N  0.09585570  0.33401492  0.56303977    -0.38900
N1066       N  0.14135992  0.42388057  0.71045731    -0.38900
N1067       N  0.16608978  0.39915892  0.56234632    -0.38300
N1068       N  0.09966891  0.34895898  0.72676059    -0.38300
C1069       C  0.34745554  0.28980273  0.57754023    -0.05000
C1070       C  0.32703984  0.26427104  0.58424110    -0.02100
C1071       C  0.30616390  0.26054147  0.60321659     0.02900
C1072       C  0.30461788  0.28212128  0.61473101    -0.05000
C1073       C  0.32479369  0.30755623  0.60808911    -0.02100
C1074       C  0.34653681  0.31136384  0.59058006     0.02900
C1075       C  0.32635898  0.24136341  0.57070931     0.37500
C1076       C  0.32314576  0.32993320  0.61907090     0.37500
C1077       C  0.36836942  0.33746217  0.58714157     0.35900
C1078       C  0.28536088  0.23421092  0.60908387     0.35900
N1079       N  0.38596559  0.35824290  0.58479384    -0.38900
N1080       N  0.26900815  0.21311351  0.61357528    -0.38900
N1081       N  0.32170472  0.34776807  0.62755450    -0.38300
N1082       N  0.32517194  0.22268911  0.56038541    -0.38300
C1083       C  0.20684741  0.19516079  0.61054157    -0.05000
C1084       C  0.20616587  0.19518731  0.57746381    -0.02100
C1085       C  0.20305423  0.17351002  0.56050847     0.02900
C1086       C  0.19856681  0.15093090  0.57586649    -0.05000
C1087       C  0.19431873  0.14889644  0.60803404    -0.02100
C1088       C  0.19902290  0.17113736  0.62560257     0.02900
C1089       C  0.20848647  0.21717707  0.56016934     0.37500
C1090       C  0.18511300  0.12399931  0.62288038     0.37500
C1091       C  0.19579985  0.16895174  0.65893016     0.35900
C1092       C  0.20430508  0.17428812  0.52688514     0.35900
N1093       N  0.19307546  0.16699604  0.68549347    -0.38900
N1094       N  0.20515328  0.17470720  0.50013642    -0.38900
N1095       N  0.17720241  0.10400813  0.63466849    -0.38300
N1096       N  0.21030231  0.23455160  0.54608139    -0.38300
C1097       C  0.28157246  0.31386119  0.74534497    -0.05000
C1098       C  0.27183549  0.31889514  0.77283952    -0.02100
C1099       C  0.28784670  0.34080030  0.79147123     0.02900
C1100       C  0.31376220  0.35832188  0.78241506    -0.05000
C1101       C  0.32437452  0.35124873  0.75719602    -0.02100
C1102       C  0.30836675  0.32895367  0.73888960     0.02900
C1103       C  0.24493951  0.30177765  0.78161227     0.37500
C1104       C  0.35182441  0.36664310  0.75007837     0.37500
C1105       C  0.31928120  0.32247151  0.71250848     0.35900
C1106       C  0.27700570  0.34543504  0.81933778     0.35900
N1107       N  0.32809822  0.31721574  0.69164579    -0.38900
N1108       N  0.26826499  0.34877365  0.84170342    -0.38900
N1109       N  0.37370347  0.37866033  0.74419296    -0.38300
N1110       N  0.22345757  0.28821255  0.78834921    -0.38300
C1111       C  0.13592589  0.19383409  0.78322259    -0.05000
C1112       C  0.13100633  0.20664569  0.75898664    -0.02100
C1113       C  0.15147673  0.22496307  0.74078052     0.02900
C1114       C  0.17644299  0.22704503  0.74213855    -0.05000
C1115       C  0.18178866  0.21539708  0.76765085    -0.02100
C1116       C  0.16201539  0.20068089  0.78940271     0.02900
C1117       C  0.10512129  0.20262599  0.75374616     0.37500
C1118       C  0.20792623  0.22006225  0.77315099     0.37500
C1119       C  0.16922516  0.19528846  0.81929590     0.35900
C1120       C  0.14690585  0.24320839  0.72331382     0.35900
N1121       N  0.17604535  0.19283597  0.84352394    -0.38900
N1122       N  0.14330923  0.25822938  0.71048131    -0.38900
N1123       N  0.22875246  0.22372150  0.77772758    -0.38300
N1124       N  0.08494600  0.20027197  0.74840275    -0.38300
C1125       C  0.25625056  0.35507130  0.63221024    -0.05000
C1126       C  0.26976691  0.37339839  0.65577609    -0.02100
C1127       C  0.26572805  0.39461692  0.65999269     0.02900
C1128       C  0.25073025  0.39952241  0.63804615    -0.05000
C1129       C  0.24350456  0.38485072  0.60987302    -0.02100
C1130       C  0.24652534  0.36265168  0.60698737     0.02900
C1131       C  0.28676389  0.36954485  0.67673693     0.37500
C1132       C  0.23150428  0.39119435  0.58464107     0.37500
C1133       C  0.24037914  0.34808565  0.57812955     0.35900
C1134       C  0.27496725  0.40920842  0.68874618     0.35900
N1135       N  0.23635621  0.33686068  0.55483138    -0.38900
N1136       N  0.28165088  0.41944120  0.71262376    -0.38900
N1137       N  0.22196570  0.39614977  0.56435212    -0.38300
N1138       N  0.30056161  0.36681022  0.69331980    -0.38300
C1139       C  0.10631305  0.25412395  0.63198976    -0.05000
C1140       C  0.12346914  0.26999862  0.60849237    -0.02100
C1141       C  0.14813660  0.27221786  0.60545681     0.02900
C1142       C  0.15505721  0.25752149  0.62441127    -0.05000
C1143       C  0.13576586  0.23715460  0.64189063    -0.02100
C1144       C  0.11144588  0.23573250  0.64626933     0.02900
C1145       C  0.11624943  0.28420711  0.58737230     0.37500
C1146       C  0.14141440  0.21828077  0.65577449     0.37500
C1147       C  0.09160143  0.21516594  0.66467550     0.35900
C1148       C  0.16650767  0.28984584  0.58314538     0.35900
N1149       N  0.07549599  0.19850448  0.67888708    -0.38900
N1150       N  0.18064780  0.30368355  0.56475619    -0.38900
N1151       N  0.14610111  0.20320547  0.66648105    -0.38300
N1152       N  0.11062902  0.29504791  0.56953633    -0.38300
O1153       O  0.19272608  0.76266078  0.11490617    -0.81400
C1154       C  0.25978760  0.79556118  0.21966556     0.97900
O1155       O  0.23948705  0.79703162  0.21592603    -0.70600
O1156       O  0.24107508  0.82179059  0.16692782    -0.74200
Al1157     Al  0.21636765  0.78956339  0.18201122     1.49000
C1158       C  0.24426538  0.82910540  0.13930117     0.93200
O1159       O  0.26590493  0.79069735  0.11660576    -0.80400
O1160       O  0.21684118  0.72298155  0.15199019    -0.71200
Al1161     Al  0.22939242  0.77695456  0.11781911     1.90100
O1162       O  0.26767751  0.76262571  0.14821658    -0.73000
O1163       O  0.21282316  0.73960329  0.20911614    -0.72900
O1164       O  0.26393078  0.78053604  0.20280004    -0.78500
O1165       O  0.19071414  0.75930701  0.20018537    -0.76700
O1166       O  0.22832919  0.77301612  0.15890773    -1.12900
O1167       O  0.18995220  0.78564535  0.15330143    -0.72000
C1168       C  0.17974497  0.77010731  0.13068663     0.98700
C1169       C  0.27761316  0.77935367  0.12693786     0.95100
Al1170     Al  0.23933463  0.75305139  0.17663426     1.55600
O1171       O  0.23622991  0.81242076  0.11764648    -0.76700
C1172       C  0.19327606  0.74242732  0.21465919     0.99200
C1173       C  0.21647056  0.72268166  0.12267525     0.94100
O1174       O  0.22317316  0.74338444  0.10829377    -0.82000
O1175       O  0.24252864  0.93729165  0.13129058    -0.81400
C1176       C  0.20696488  0.97355922  0.23095843     0.97900
O1177       O  0.21090384  0.95456343  0.23099606    -0.70600
O1178       O  0.18449889  0.92472490  0.18486157    -0.74200
Al1179     Al  0.21895026  0.93807022  0.19853584     1.49000
C1180       C  0.17596750  0.91814599  0.15758753     0.93200
O1181       O  0.20812090  0.97648027  0.12743879    -0.80400
O1182       O  0.27824419  0.50640562  0.16164205    -0.73900
Al1183     Al  0.22550707  0.95730107  0.13179024     1.90100
O1184       O  0.23369618  0.51037068  0.15559941    -0.73000
O1185       O  0.26604875  0.49050190  0.21989659    -0.72900
O1186       O  0.21916780  0.49166843  0.21207442    -0.78500
O1187       O  0.25205329  0.94882657  0.21454452    -0.76700
O1188       O  0.23096184  0.96428366  0.17218326    -1.12900
O1189       O  0.22402289  0.91480415  0.17271534    -0.72000
C1190       C  0.23736946  0.91843661  0.14871607     0.98700
C1191       C  0.21603731  0.49972913  0.13506349     0.95100
Al1192     Al  0.24786187  0.49701528  0.18628692     1.55600
O1193       O  0.19149960  0.92707756  0.13514815    -0.76700
C1194       C  0.26835655  0.97077324  0.22526312     0.99200
C1195       C  0.27857128  0.50213508  0.13292096     0.94100
O1196       O  0.25780248  0.98552845  0.11960474    -0.82000
O1197       O  0.06261791  0.80985812  0.13545881    -0.81400
C1198       C  0.02541105  0.72908560  0.22513493     0.97900
O1199       O  0.04685420  0.74976451  0.22399184    -0.70600
O1200       O  0.07551083  0.75697355  0.17412140    -0.74200
Al1201     Al  0.06285000  0.77716332  0.19549359     1.49000
C1202       C  0.08133460  0.75971636  0.14564499     0.93200
O1203       O  0.02094145  0.73679098  0.11989545    -0.80400
O1204       O  0.49448142  0.77515587  0.16531273    -0.73900
Al1205     Al  0.04120587  0.77281662  0.12956699     1.90100
O1206       O  0.48960939  0.72682039  0.15242172    -0.73000
O1207       O  0.51152708  0.77454303  0.22058356    -0.72900
O1208       O  0.50705539  0.72617078  0.20758117    -0.78500
O1209       O  0.05344315  0.79857663  0.21822380    -0.76700
O1210       O  0.03562534  0.76702896  0.17018425    -1.12900
O1211       O  0.08580905  0.80754559  0.17358654    -0.72000
C1212       C  0.08221477  0.82063030  0.15336290     0.98700
C1213       C  0.49932268  0.72065092  0.13009460     0.95100
Al1214     Al  0.50356643  0.75198962  0.18506300     1.55600
O1215       O  0.07070783  0.76833250  0.12765402    -0.76700
C1216       C  0.03170835  0.79487363  0.22753737     0.99200
C1217       C  0.49747354  0.78201083  0.13745195     0.94100
O1218       O  0.01305550  0.77863478  0.12110467    -0.82000
O1219       O  0.23314432  0.63788238  0.46154893    -0.81400
C1220       C  0.19256368  0.56608789  0.05984446     0.97900
O1221       O  0.21297111  0.58779908  0.05942276    -0.70600
O1222       O  0.24007218  0.58613028  0.01282676    -0.74200
Al1223     Al  0.23071590  0.61056806  0.02676517     1.49000
C1224       C  0.24488183  0.58521249  0.48541231     0.93200
O1225       O  0.18630369  0.56517133  0.45568016    -0.80400
O1226       O  0.16265063  0.60805680  0.49443296    -0.73900
Al1227     Al  0.20881550  0.60104150  0.46189492     1.90100
O1228       O  0.15508832  0.55796774  0.48735625    -0.73000
O1229       O  0.18153345  0.61112561  0.04839376    -0.72900
O1230       O  0.17462127  0.56097537  0.04039033    -0.78500
O1231       O  0.22370170  0.63598991  0.04253745    -0.76700
O1232       O  0.20442193  0.59886407  0.00020118    -1.12900
O1233       O  0.25531439  0.63626871  0.00142529    -0.72000
C1234       C  0.25300837  0.64864928  0.47875273     0.98700
C1235       C  0.16381768  0.55028769  0.46552743     0.95100
Al1236     Al  0.17215406  0.58623318  0.01478659     1.55600
O1237       O  0.23593757  0.59261812  0.46369987    -0.76700
C1238       C  0.20235349  0.63235782  0.05314375     0.99200
C1239       C  0.16783357  0.61482577  0.46643064     0.94100
O1240       O  0.18302176  0.60948942  0.45195874    -0.82000
O1241       O  0.35511339  0.58777713  0.46247793    -0.81400
C1242       C  0.43294251  0.62676358  0.06121683     0.97900
O1243       O  0.41140684  0.62585742  0.05993304    -0.70600
O1244       O  0.40753177  0.65045977  0.01231129    -0.74200
Al1245     Al  0.38612553  0.61683960  0.02917794     1.49000
C1246       C  0.40558402  0.65612510  0.47802554     0.93200
O1247       O  0.42851669  0.61857277  0.45095034    -0.80400
O1248       O  0.39088964  0.55336884  0.49156320    -0.73900
Al1249     Al  0.39214750  0.60350425  0.45897518     1.90100
O1250       O  0.43834069  0.59756064  0.48552345    -0.73000
O1251       O  0.38928548  0.56808780  0.05205697    -0.72900
O1252       O  0.43773677  0.61287474  0.04308788    -0.78500
O1253       O  0.36391399  0.58516319  0.04809211    -0.76700
O1254       O  0.39797621  0.60158393  0.00326677    -1.12900
O1255       O  0.35705253  0.61145759  0.00515656    -0.72000
C1256       C  0.34270149  0.59386970  0.48133196     0.98700
C1257       C  0.44404521  0.61178987  0.46194641     0.95100
Al1258     Al  0.41313231  0.58403786  0.01804428     1.55600
O1259       O  0.39744086  0.63811094  0.45807056    -0.76700
C1260       C  0.36837130  0.56793138  0.05835856     0.99200
C1261       C  0.38445267  0.55083834  0.46336610     0.94100
O1262       O  0.38613077  0.56998832  0.44921884    -0.82000
O1263       O  0.41888838  0.77252135  0.45682664    -0.81400
C1264       C  0.36813086  0.79588849  0.05598576     0.97900
O1265       O  0.37509316  0.77900462  0.05607045    -0.70600
O1266       O  0.35507179  0.74963765  0.00674296    -0.74200
Al1267     Al  0.38868389  0.76677479  0.02444929     1.49000
C1268       C  0.34988723  0.74326435  0.47745603     0.93200
O1269       O  0.37658887  0.80397499  0.45467116    -0.80400
O1270       O  0.44458794  0.83794430  0.49644234    -0.73900
Al1271     Al  0.39794114  0.78875629  0.45814921     1.90100
O1272       O  0.39828779  0.83689264  0.48606319    -0.73000
O1273       O  0.42783766  0.82009846  0.05232900    -0.72900
O1274       O  0.37920277  0.81504398  0.03803162    -0.78500
O1275       O  0.42065407  0.78038648  0.04455892    -0.76700
O1276       O  0.39945546  0.79382617  0.99962026    -1.12900
O1277       O  0.40000354  0.74841133  0.99943297    -0.72000
C1278       C  0.41390764  0.75270936  0.47245059     0.98700
C1279       C  0.38183044  0.82617204  0.46434518     0.95100
Al1280     Al  0.41112058  0.82547578  0.01625917     1.55600
O1281       O  0.36635020  0.75558529  0.45675104    -0.76700
C1282       C  0.43204149  0.80167268  0.05897306     0.99200
C1283       C  0.44719537  0.83733210  0.46744640     0.94100
O1284       O  0.42893922  0.82088627  0.45043982    -0.82000
O1285       O  0.40661585  0.96639629  0.30107895    -0.81400
C1286       C  0.35862695  0.89296891  0.39258351     0.97900
O1287       O  0.38062512  0.90695808  0.38113737    -0.70600
O1288       O  0.41461109  0.93178591  0.33935885    -0.74200
Al1289     Al  0.39330635  0.93998539  0.36477550     1.49000
C1290       C  0.41123697  0.91977988  0.31397359     0.93200
O1291       O  0.34368902  0.90159123  0.28435875    -0.80400
O1292       O  0.32217753  0.92810925  0.31838930    -0.73900
Al1293     Al  0.37418734  0.93360793  0.29711551     1.90100
O1294       O  0.32510987  0.88314022  0.32792767    -0.73000
O1295       O  0.34130584  0.94413540  0.37482162    -0.72900
O1296       O  0.33980567  0.89665802  0.38613382    -0.78500
O1297       O  0.37758060  0.95061543  0.39656390    -0.76700
O1298       O  0.36740616  0.92926240  0.33754996    -1.12900
O1299       O  0.40958885  0.97461781  0.35101103    -0.72000
C1300       C  0.41775659  0.98150391  0.32391446     0.98700
C1301       C  0.32794488  0.88150914  0.29916872     0.95100
Al1302     Al  0.33469595  0.91422702  0.35084937     1.55600
O1303       O  0.39200052  0.91449344  0.29686362    -0.76700
C1304       C  0.35939755  0.95584751  0.39442512     0.99200
C1305       C  0.33394891  0.94563368  0.29833184     0.94100
O1306       O  0.35741853  0.95333278  0.29229021    -0.82000
O1307       O  0.02345384  0.92577936  0.28750561    -0.81400
C1308       C  0.09341465  0.96211516  0.38985955     0.97900
O1309       O  0.07231370  0.96220735  0.38689267    -0.70600
O1310       O  0.07038473  0.98619952  0.33834146    -0.74200
Al1311     Al  0.04788106  0.95318643  0.35413778     1.49000
C1312       C  0.07363560  0.99333128  0.31057022     0.93200
O1313       O  0.09684036  0.95707117  0.28673034    -0.80400
O1314       O  0.05215579  0.88882912  0.32325027    -0.73900
Al1315     Al  0.06035832  0.94149921  0.28915090     1.90100
O1316       O  0.10233845  0.93090200  0.31702391    -0.73000
O1317       O  0.04957193  0.90558917  0.38067240    -0.72900
O1318       O  0.09847630  0.94819463  0.37214499    -0.78500
O1319       O  0.02421901  0.92199540  0.37283291    -0.76700
O1320       O  0.06081751  0.93803585  0.33012004    -1.12900
O1321       O  0.02010764  0.94742612  0.32703497    -0.72000
C1322       C  0.01013233  0.93229160  0.30410349     0.98700
C1323       C  0.11110289  0.94840368  0.29651531     0.95100
Al1324     Al  0.07440369  0.91982544  0.34683549     1.55600
O1325       O  0.06570580  0.97646630  0.28910983    -0.76700
C1326       C  0.02924041  0.90664950  0.38724673     0.99200
C1327       C  0.04955927  0.88771967  0.29409035     0.94100
O1328       O  0.05532710  0.90813459  0.27939773    -0.82000
O1329       O  0.08276636  0.60804054  0.29800887    -0.81400
C1330       C  0.03841854  0.63563239  0.39677472     0.97900
O1331       O  0.04707287  0.62014467  0.39841251    -0.70600
O1332       O  0.02183516  0.58891211  0.35157142    -0.74200
Al1333     Al  0.05675604  0.60548686  0.36510352     1.49000
C1334       C  0.01484915  0.58008845  0.32448311     0.93200
O1335       O  0.03984174  0.63930501  0.29436645    -0.80400
O1336       O  0.11070785  0.67703714  0.32956260    -0.73900
Al1337     Al  0.06160329  0.62439098  0.29837983     1.90100
O1338       O  0.06295119  0.67436720  0.32243123    -0.73000
O1339       O  0.09895930  0.65945694  0.38785954    -0.72900
O1340       O  0.04873310  0.65428418  0.37803494    -0.78500
O1341       O  0.09014745  0.61910028  0.38046883    -0.76700
O1342       O  0.06622152  0.63137748  0.33882864    -1.12900
O1343       O  0.06452401  0.58459170  0.33902150    -0.72000
C1344       C  0.07805463  0.58895191  0.31510362     0.98700
C1345       C  0.04550319  0.66213912  0.30199602     0.95100
Al1346     Al  0.07931346  0.66374009  0.35352527     1.55600
O1347       O  0.02985185  0.59084723  0.30180628    -0.76700
C1348       C  0.10386395  0.64111254  0.39263946     0.99200
C1349       C  0.11122789  0.67467885  0.30042315     0.94100
O1350       O  0.09203441  0.65631993  0.28620451    -0.82000
C1351       C  0.08487663  0.52146324  0.30416863    -0.05000
C1352       C  0.09883868  0.53916622  0.32826076    -0.02100
C1353       C  0.09781962  0.56218756  0.33144029     0.02900
C1354       C  0.08670720  0.56995624  0.30764585    -0.05000
C1355       C  0.07856888  0.55516724  0.27981616    -0.02100
C1356       C  0.07768784  0.53080490  0.27805569     0.02900
C1357       C  0.11312791  0.53309477  0.35093383     0.37500
C1358       C  0.06805305  0.56327070  0.25465262     0.37500
C1359       C  0.06999443  0.01587647  0.24973986     0.35900
C1360       C  0.10461302  0.57505055  0.36145688     0.35900
N1361       N  0.06419389  0.00403711  0.22677383    -0.38900
N1362       N  0.10926254  0.58320321  0.38651726    -0.38900
N1363       N  0.05948338  0.56966636  0.23467202    -0.38300
N1364       N  0.12479686  0.52872515  0.36907154    -0.38300
C1365       C  0.44280181  0.50630350  0.31989431    -0.05000
C1366       C  0.44451290  0.52803666  0.30441355    -0.02100
C1367       C  0.46813247  0.55217746  0.30518526     0.02900
C1368       C  0.49016500  0.55433244  0.32068477    -0.05000
C1369       C  0.48883121  0.53203744  0.33407502    -0.02100
C1370       C  0.46536408  0.50825290  0.33372485     0.02900
C1371       C  0.42204976  0.52569793  0.28806538     0.37500
C1372       C  0.51169295  0.53322439  0.34822934     0.37500
C1373       C  0.46494371  0.48568252  0.34730873     0.35900
C1374       C  0.46943846  0.57498224  0.29130652     0.35900
N1375       N  0.46553884  0.96824441  0.35909913    -0.38900
N1376       N  0.47035628  0.59320052  0.28039388    -0.38900
N1377       N  0.02894166  0.53377604  0.36124915    -0.38300
N1378       N  0.40427223  0.52392453  0.27468222    -0.38300
C1379       C  0.43194428  0.91477882  0.30318130    -0.05000
C1380       C  0.43898124  0.89938621  0.32099873    -0.02100
C1381       C  0.46368692  0.90180455  0.31717946     0.02900
C1382       C  0.48158010  0.92033213  0.29651164    -0.05000
C1383       C  0.47310739  0.93267991  0.27557842    -0.02100
C1384       C  0.44815681  0.92983105  0.27878917     0.02900
C1385       C  0.42126143  0.88196566  0.34406170     0.37500
C1386       C  0.99270148  0.95403474  0.25607074     0.37500
C1387       C  0.44023017  0.94432665  0.25891301     0.35900
C1388       C  0.47094177  0.88565543  0.33486128     0.35900
N1389       N  0.43391661  0.95588892  0.24303466    -0.38900
N1390       N  0.47633004  0.87224367  0.34851658    -0.38900
N1391       N  0.00701013  0.96853001  0.23828009    -0.38300
N1392       N  0.40714390  0.86798435  0.36241340    -0.38300
C1393       C  0.35629284  0.87290300  0.41453695    -0.05000
C1394       C  0.36792539  0.88079683  0.44407559    -0.02100
C1395       C  0.37321433  0.86411483  0.46192530     0.02900
C1396       C  0.36983222  0.84048387  0.44891735    -0.05000
C1397       C  0.35675905  0.83203446  0.41971769    -0.02100
C1398       C  0.34919848  0.84783844  0.40336601     0.02900
C1399       C  0.37670298  0.90710613  0.45510281     0.37500
C1400       C  0.35248497  0.80807760  0.40497206     0.37500
C1401       C  0.33565036  0.83898860  0.37385417     0.35900
C1402       C  0.38283396  0.87204855  0.49337438     0.35900
N1403       N  0.32463606  0.83155149  0.35051684    -0.38900
N1404       N  0.39053641  0.87859363  0.51837822    -0.38900
N1405       N  0.34927137  0.78912024  0.39296833    -0.38300
N1406       N  0.38446709  0.92820220  0.46398825    -0.38300
C1407       C  0.47122782  0.85697195  0.45217014    -0.05000
C1408       C  0.48903531  0.85000392  0.44013311    -0.02100
C1409       C  0.00832299  0.86596375  0.42069498     0.02900
C1410       C  0.01075941  0.89017989  0.41211092    -0.05000
C1411       C  0.99420754  0.89820151  0.42661164    -0.02100
C1412       C  0.47439753  0.88163059  0.44581682     0.02900
C1413       C  0.48580700  0.82464888  0.44716722     0.37500
C1414       C  0.99718842  0.92373154  0.42113200     0.37500
C1415       C  0.45630852  0.88902637  0.45864595     0.35900
C1416       C  0.02609318  0.85785945  0.40883145     0.35900
N1417       N  0.44202228  0.89515769  0.46867204    -0.38900
N1418       N  0.04030943  0.85130447  0.39964608    -0.38900
N1419       N  0.99925518  0.94394618  0.41681761    -0.38300
N1420       N  0.48305330  0.80435081  0.45274009    -0.38300
C1421       C  0.01493393  0.63032380  0.41542556    -0.05000
C1422       C  0.01019381  0.65063868  0.42473896    -0.02100
C1423       C  0.48764192  0.64464079  0.44007717     0.02900
C1424       C  0.46873168  0.61860649  0.44597222    -0.05000
C1425       C  0.47382548  0.59842827  0.43802554    -0.02100
C1426       C  0.49734030  0.60403091  0.42377040     0.02900
C1427       C  0.03061890  0.67752072  0.42240785     0.37500
C1428       C  0.45437829  0.57143859  0.44364601     0.37500
C1429       C  0.00017966  0.58243528  0.41620942     0.35900
C1430       C  0.48303591  0.66549197  0.44988591     0.35900
N1431       N  0.00280237  0.56451994  0.41214121    -0.38900
N1432       N  0.47927585  0.68206567  0.45776251    -0.38900
N1433       N  0.43911167  0.54991011  0.44806289    -0.38300
N1434       N  0.04704254  0.69900543  0.42133276    -0.38300
C1435       C  0.36174463  0.97855361  0.41217068    -0.05000
C1436       C  0.35862081  0.97797258  0.44455815    -0.02100
C1437       C  0.36500492  0.50134954  0.46109202     0.02900
C1438       C  0.37558508  0.52563993  0.44574493    -0.05000
C1439       C  0.37805584  0.52579305  0.41285683    -0.02100
C1440       C  0.37059072  0.50251106  0.39620099     0.02900
C1441       C  0.34701120  0.95323216  0.46029418     0.37500
C1442       C  0.38981435  0.54994409  0.39566029     0.37500
C1443       C  0.37298906  0.50303478  0.36271405     0.35900
C1444       C  0.36158105  0.49999278  0.49439905     0.35900
N1445       N  0.37463588  0.50336195  0.33601533    -0.38900
N1446       N  0.36094892  0.99905164  0.52161055    -0.38900
N1447       N  0.39924700  0.56906121  0.38174498    -0.38300
N1448       N  0.33728078  0.93354065  0.47302322    -0.38300
C1449       C  0.41538460  0.68370119  0.46871173    -0.05000
C1450       C  0.40426576  0.68982817  0.44321538    -0.02100
C1451       C  0.40783767  0.71518014  0.44060073     0.02900
C1452       C  0.42256911  0.73426130  0.46315147    -0.05000
C1453       C  0.43690797  0.72983069  0.99131055    -0.02100
C1454       C  0.43401100  0.70486677  0.99492756     0.02900
C1455       C  0.38727971  0.66984418  0.42128203     0.37500
C1456       C  0.45329258  0.75078009  0.01261514     0.37500
C1457       C  0.44849737  0.70080744  0.01924585     0.35900
C1458       C  0.39366824  0.72072951  0.41722470     0.35900
N1459       N  0.46017410  0.69782741  0.03872510    -0.38900
N1460       N  0.38231635  0.72519947  0.39869933    -0.38900
N1461       N  0.46644231  0.76747353  0.02956588    -0.38300
N1462       N  0.37381042  0.65402027  0.40359536    -0.38300
C1463       C  0.12559150  0.64394264  0.41254999    -0.05000
C1464       C  0.12291719  0.64241908  0.44503080    -0.02100
C1465       C  0.13789357  0.63475408  0.46331950     0.02900
C1466       C  0.15570179  0.62837434  0.44906714    -0.05000
C1467       C  0.16076347  0.63373652  0.41682954    -0.02100
C1468       C  0.14500212  0.64016757  0.39870629     0.02900
C1469       C  0.10280726  0.64614862  0.45921975     0.37500
C1470       C  0.18132661  0.63161072  0.40109037     0.37500
C1471       C  0.14589418  0.63844231  0.36513836     0.35900
C1472       C  0.13453246  0.63327839  0.49662124     0.35900
N1473       N  0.14593949  0.63565047  0.33856002    -0.38900
N1474       N  0.14760149  0.64586427  0.02098948    -0.38900
N1475       N  0.19758684  0.62992166  0.38830364    -0.38300
N1476       N  0.08659351  0.64896302  0.47030862    -0.38300
C1477       C  0.11240087  0.97980702  0.41370734    -0.05000
C1478       C  0.13990715  0.49381238  0.40672659    -0.02100
C1479       C  0.15694252  0.51545680  0.42531091     0.02900
C1480       C  0.14716173  0.52407653  0.45017279    -0.05000
C1481       C  0.11978682  0.00832581  0.45867041    -0.02100
C1482       C  0.10321189  0.98605545  0.44081739     0.02900
C1483       C  0.15000938  0.48716971  0.37968089     0.37500
C1484       C  0.10899734  0.01457716  0.48540507     0.37500
C1485       C  0.07654265  0.96933333  0.45064042     0.35900
C1486       C  0.18445859  0.52881235  0.41794571     0.35900
N1487       N  0.05538949  0.95597062  0.45866737    -0.38900
N1488       N  0.20631830  0.53922030  0.41181827    -0.38900
N1489       N  0.09965909  0.02300333  0.00167025    -0.38300
N1490       N  0.15838144  0.48218198  0.35816265    -0.38300
C1491       C  0.27757164  0.67218133  0.46977816    -0.05000
C1492       C  0.27858537  0.69548042  0.46027733    -0.02100
C1493       C  0.30464931  0.71652327  0.95675876     0.02900
C1494       C  0.32563845  0.71914329  0.46983500    -0.05000
C1495       C  0.32486852  0.69551043  0.47592911    -0.02100
C1496       C  0.30112394  0.67226133  0.47581596     0.02900
C1497       C  0.25864908  0.69020259  0.93932116     0.37500
C1498       C  0.34815813  0.69491534  0.48526620     0.37500
C1499       C  0.30134053  0.64875464  0.48448660     0.35900
C1500       C  0.30527758  0.74000801  0.94627722     0.35900
N1501       N  0.30299110  0.63109613  0.49262219    -0.38900
N1502       N  0.30578501  0.75880860  0.93806175    -0.38900
N1503       N  0.36568380  0.69294346  0.49352032    -0.38300
N1504       N  0.24057442  0.68864395  0.92690872    -0.38300
C1505       C  0.31408322  0.58272145  0.47886419    -0.05000
C1506       C  0.30229740  0.58304928  0.45049887    -0.02100
C1507       C  0.27747936  0.58111038  0.45073981     0.02900
C1508       C  0.26331115  0.57543551  0.47885577    -0.05000
C1509       C  0.27426395  0.56753377  0.00666681    -0.02100
C1510       C  0.30088645  0.57612032  0.00868044     0.02900
C1511       C  0.31660792  0.58812368  0.42179783     0.37500
C1512       C  0.25769683  0.55490546  0.03306951     0.37500
C1513       C  0.31197366  0.58008119  0.03955367     0.35900
C1514       C  0.26802737  0.58729173  0.42289168     0.35900
N1515       N  0.31917646  0.58369080  0.06501961    -0.38900
N1516       N  0.26076011  0.59254779  0.40065934    -0.38900
N1517       N  0.24478561  0.54490185  0.05428891    -0.38300
N1518       N  0.32792083  0.59180854  0.39885529    -0.38300
C1519       C  0.48176446  0.79267448  0.12298761    -0.05000
C1520       C  0.45493728  0.78163437  0.12949740    -0.02100
C1521       C  0.43894717  0.78708078  0.11025696     0.02900
C1522       C  0.44957743  0.80363341  0.08456392    -0.05000
C1523       C  0.47660968  0.81686048  0.08008715    -0.02100
C1524       C  0.49270374  0.81168234  0.09947053     0.02900
C1525       C  0.44320301  0.76307446  0.15431711     0.37500
C1526       C  0.48753201  0.83394220  0.05376891     0.37500
C1527       C  0.02017899  0.82461799  0.09389483     0.35900
C1528       C  0.41110974  0.77419570  0.11560792     0.35900
N1529       N  0.04230565  0.83567180  0.08932353    -0.38900
N1530       N  0.38892657  0.76381256  0.11985704    -0.38900
N1531       N  0.99573664  0.84668025  0.03239066    -0.38300
N1532       N  0.43375742  0.74825551  0.17410144    -0.38300
C1533       C  0.45250389  0.64606540  0.08332932    -0.05000
C1534       C  0.44379232  0.65177074  0.11123967    -0.02100
C1535       C  0.45940148  0.67533347  0.12733903     0.02900
C1536       C  0.48432853  0.69375372  0.11582085    -0.05000
C1537       C  0.49443439  0.68596653  0.09050757    -0.02100
C1538       C  0.47848578  0.66239226  0.07422577     0.02900
C1539       C  0.41807619  0.63378987  0.12306564     0.37500
C1540       C  0.02094064  0.70191653  0.08039664     0.37500
C1541       C  0.48835283  0.65601276  0.04675011     0.35900
C1542       C  0.44908766  0.68018130  0.15559190     0.35900
N1543       N  0.99580649  0.65192421  0.02326707    -0.38900
N1544       N  0.44068225  0.68383938  0.17806314    -0.38900
N1545       N  0.04229872  0.71457414  0.07264408    -0.38300
N1546       N  0.39758097  0.61996558  0.13270011    -0.38300
C1547       C  0.04087394  0.86280923  0.27608857    -0.05000
C1548       C  0.04686852  0.86351613  0.24403664    -0.02100
C1549       C  0.04040852  0.84038373  0.22778548     0.02900
C1550       C  0.03085167  0.81674940  0.24359944    -0.05000
C1551       C  0.02163005  0.81511072  0.27398629    -0.02100
C1552       C  0.02615080  0.83804381  0.29003570     0.02900
C1553       C  0.06010425  0.88778408  0.22714910     0.37500
C1554       C  0.00621474  0.78984048  0.28793191     0.37500
C1555       C  0.01391594  0.83580565  0.31970444     0.35900
C1556       C  0.04209084  0.84061086  0.19423459     0.35900
N1557       N  0.00340404  0.83372193  0.34294898    -0.38900
N1558       N  0.04277614  0.84105158  0.16746219    -0.38900
N1559       N  0.99331173  0.76967483  0.29888639    -0.38300
N1560       N  0.07057091  0.90697698  0.21344610    -0.38300
C1561       C  0.02312662  0.70871461  0.24688120    -0.05000
C1562       C  0.01779391  0.68412625  0.23563517    -0.02100
C1563       C  0.02292226  0.66765187  0.25441044     0.02900
C1564       C  0.03323911  0.67559771  0.28500257    -0.05000
C1565       C  0.03516174  0.69884183  0.29726610    -0.02100
C1566       C  0.03066105  0.71544424  0.27812921     0.02900
C1567       C  0.00935720  0.67679650  0.20372083     0.37500
C1568       C  0.04277438  0.70654862  0.32925706     0.37500
C1569       C  0.03511709  0.74028463  0.29029822     0.35900
C1570       C  0.01961972  0.64370320  0.24072897     0.35900
N1571       N  0.03906836  0.76019083  0.30004005    -0.38900
N1572       N  0.01707319  0.62472917  0.22955280    -0.38900
N1573       N  0.04901751  0.71315802  0.35465304    -0.38300
N1574       N  0.50183923  0.67063433  0.17793754    -0.38300
C1575       C  0.19163500  0.54674672  0.08255650    -0.05000
C1576       C  0.18344484  0.52094275  0.07314286    -0.02100
C1577       C  0.18969371  0.50495122  0.09127784     0.02900
C1578       C  0.20515817  0.51489294  0.11881385    -0.05000
C1579       C  0.21120897  0.54010263  0.12944433    -0.02100
C1580       C  0.20410050  0.55558790  0.11173013     0.02900
C1581       C  0.17057909  0.51141020  0.04332621     0.37500
C1582       C  0.22511273  0.55077483  0.15846347     0.37500
C1583       C  0.21055694  0.58126124  0.12323664     0.35900
C1584       C  0.18027950  0.97841153  0.08084205     0.35900
N1585       N  0.21598916  0.60177493  0.13247170    -0.38900
N1586       N  0.17295469  0.95738761  0.07192251    -0.38900
N1587       N  0.23602069  0.55940284  0.18163872    -0.38300
N1588       N  0.16008161  0.00355336  0.01996850    -0.38300
C1589       C  0.34760830  0.54686253  0.07675596    -0.05000
C1590       C  0.32319478  0.53141696  0.06261708    -0.02100
C1591       C  0.30091268  0.51688526  0.08071502     0.02900
C1592       C  0.30285621  0.51679884  0.11372674    -0.05000
C1593       C  0.32814071  0.53050838  0.12747869    -0.02100
C1594       C  0.35038647  0.54503715  0.10885327     0.02900
C1595       C  0.32102420  0.53077839  0.02900856     0.37500
C1596       C  0.33165553  0.53031554  0.16070514     0.37500
C1597       C  0.37623031  0.55794896  0.12253245     0.35900
C1598       C  0.27592918  0.00283632  0.06452346     0.35900
N1599       N  0.39694099  0.56780349  0.13320275    -0.38900
N1600       N  0.25619616  0.99192775  0.05150976    -0.38900
N1601       N  0.33478240  0.53053551  0.18721391    -0.38300
N1602       N  0.31928215  0.53015671  0.00226802    -0.38300
C1603       C  0.18601374  0.97240540  0.25171057    -0.05000
C1604       C  0.17895851  0.95715219  0.27891031    -0.02100
C1605       C  0.15495738  0.94956693  0.29373864     0.02900
C1606       C  0.13794349  0.95832241  0.28279764    -0.05000
C1607       C  0.14650908  0.97591368  0.25744724    -0.02100
C1608       C  0.16986021  0.98228770  0.24175665     0.02900
C1609       C  0.19584252  0.94802933  0.29122019     0.37500
C1610       C  0.13006731  0.48534886  0.24459223     0.37500
C1611       C  0.17503387  0.49611792  0.21272747     0.35900
C1612       C  0.14771070  0.93169927  0.31945953     0.35900
N1613       N  0.17854484  0.50736549  0.18986119    -0.38900
N1614       N  0.14212249  0.91731768  0.33980769    -0.38900
N1615       N  0.11749993  0.49355992  0.23455510    -0.38300
N1616       N  0.20892651  0.94034142  0.30102466    -0.38300
C1617       C  0.29004931  0.97207118  0.24399275    -0.05000
C1618       C  0.30749454  0.96568257  0.22948776    -0.02100
C1619       C  0.32229523  0.95775275  0.24730150     0.02900
C1620       C  0.31992531  0.95628319  0.28002524    -0.05000
C1621       C  0.30403597  0.96478983  0.29462644    -0.02100
C1622       C  0.28952907  0.97311091  0.27660899     0.02900
C1623       C  0.30896602  0.96574571  0.19588765     0.37500
C1624       C  0.30245100  0.96484078  0.32812234     0.37500
C1625       C  0.27373591  0.48241821  0.29145824     0.35900
C1626       C  0.33837591  0.94917363  0.23147405     0.35900
N1627       N  0.26163923  0.49045892  0.30332736    -0.38900
N1628       N  0.35110073  0.94230540  0.21870950    -0.38900
N1629       N  0.30084286  0.46450695  0.35478838    -0.38300
N1630       N  0.30995053  0.96562332  0.16911378    -0.38300
C1631       C  0.10179962  0.84881010  0.15178455    -0.05000
C1632       C  0.11078588  0.86374135  0.17950738    -0.02100
C1633       C  0.13154264  0.88929714  0.17878638     0.02900
C1634       C  0.14799103  0.89790317  0.15282258    -0.05000
C1635       C  0.13823961  0.88408396  0.12439950    -0.02100
C1636       C  0.11415116  0.86044659  0.12370276     0.02900
C1637       C  0.10094953  0.85288596  0.20973449     0.37500
C1638       C  0.15300710  0.89329290  0.09607777     0.37500
C1639       C  0.10297418  0.84780272  0.09431865     0.35900
C1640       C  0.13582388  0.90635732  0.20515586     0.35900
N1641       N  0.09402059  0.83847577  0.07051424    -0.38900
N1642       N  0.13844532  0.91960354  0.22626818    -0.38900
N1643       N  0.16472318  0.90035438  0.07337671    -0.38300
N1644       N  0.09509058  0.84568159  0.23482529    -0.38300
C1645       C  0.34621242  0.79215477  0.07667136    -0.05000
C1646       C  0.32679298  0.76663722  0.08524731    -0.02100
C1647       C  0.30543073  0.76280520  0.10335911     0.02900
C1648       C  0.30226857  0.78413639  0.11204362    -0.05000
C1649       C  0.32185280  0.80958995  0.10442510    -0.02100
C1650       C  0.34407948  0.81362550  0.08773853     0.02900
C1651       C  0.32782699  0.74372189  0.07488848     0.37500
C1652       C  0.31946723  0.83178925  0.11441635     0.37500
C1653       C  0.36531147  0.83993257  0.08362166     0.35900
C1654       C  0.28615787  0.73648227  0.11188840     0.35900
N1655       N  0.38239747  0.86096966  0.08103226    -0.38900
N1656       N  0.27114861  0.71541112  0.11872039    -0.38900
N1657       N  0.31751567  0.84943775  0.12245629    -0.38300
N1658       N  0.32829158  0.72521182  0.06703918    -0.38300
C1659       C  0.20987697  0.69863300  0.10411043    -0.05000
C1660       C  0.21943020  0.70099038  0.07328706    -0.02100
C1661       C  0.21453315  0.67876600  0.05615834     0.02900
C1662       C  0.20210865  0.65413605  0.06990200    -0.05000
C1663       C  0.19130663  0.65121814  0.09967147    -0.02100
C1664       C  0.19491342  0.67336802  0.11664485     0.02900
C1665       C  0.23578253  0.72612997  0.05910614     0.37500
C1666       C  0.17683751  0.62554782  0.11300352     0.37500
C1667       C  0.18311700  0.66991707  0.14690647     0.35900
C1668       C  0.22170943  0.68114081  0.02369916     0.35900
N1669       N  0.17366998  0.66710808  0.17103084    -0.38900
N1670       N  0.22697102  0.68284477  0.99774793    -0.38900
N1671       N  0.16510453  0.60504005  0.12361097    -0.38300
N1672       N  0.24898415  0.74600042  0.04758571    -0.38300
C1673       C  0.27892345  0.81286091  0.24355940    -0.05000
C1674       C  0.26985491  0.81687844  0.27217153    -0.02100
C1675       C  0.28622524  0.83829862  0.29140678     0.02900
C1676       C  0.31200243  0.85613219  0.28212420    -0.05000
C1677       C  0.32192938  0.85006564  0.25532388    -0.02100
C1678       C  0.30548101  0.82848383  0.23623796     0.02900
C1679       C  0.24327855  0.79913782  0.28150180     0.37500
C1680       C  0.34901435  0.86613486  0.24683549     0.37500
C1681       C  0.31558956  0.82361810  0.20791752     0.35900
C1682       C  0.27575985  0.84238292  0.31991578     0.35900
N1683       N  0.32380273  0.81978099  0.18543181    -0.38900
N1684       N  0.26727506  0.84539455  0.34269614    -0.38900
N1685       N  0.37054530  0.87881519  0.23971843    -0.38300
N1686       N  0.22205569  0.78495590  0.28868462    -0.38300
C1687       C  0.13342389  0.69444679  0.28162203    -0.05000
C1688       C  0.12857697  0.70840496  0.25875298    -0.02100
C1689       C  0.14869645  0.72589105  0.23932783     0.02900
C1690       C  0.17304387  0.72646274  0.23857743    -0.05000
C1691       C  0.17825538  0.71345373  0.26266799    -0.02100
C1692       C  0.15921495  0.69952998  0.28548733     0.02900
C1693       C  0.10333287  0.70657094  0.25645456     0.37500
C1694       C  0.20357615  0.71542733  0.26539163     0.37500
C1695       C  0.16729251  0.69363735  0.31445858     0.35900
C1696       C  0.14445385  0.74461710  0.22244934     0.35900
N1697       N  0.17518987  0.69109026  0.33790424    -0.38900
N1698       N  0.14115334  0.76002174  0.21009228    -0.38900
N1699       N  0.22369763  0.71678039  0.26757686    -0.38300
N1700       N  0.08375106  0.70619158  0.25361424    -0.38300
C1701       C  0.25457323  0.85729330  0.13380047    -0.05000
C1702       C  0.26576495  0.87422121  0.15934500    -0.02100
C1703       C  0.25912640  0.89345330  0.16504910     0.02900
C1704       C  0.24680224  0.90007683  0.14156842    -0.05000
C1705       C  0.24210958  0.88755196  0.11223878    -0.02100
C1706       C  0.24574679  0.86580223  0.10846412     0.02900
C1707       C  0.28203152  0.87026441  0.18134495     0.37500
C1708       C  0.23069115  0.89485578  0.08726660     0.37500
C1709       C  0.23990611  0.85197434  0.07908465     0.35900
C1710       C  0.26194314  0.90324936  0.19651746     0.35900
N1711       N  0.23567294  0.84112286  0.05549537    -0.38900
N1712       N  0.26353896  0.90907574  0.22241716    -0.38900
N1713       N  0.22145549  0.90052312  0.06731258    -0.38300
N1714       N  0.29523198  0.86762064  0.19898674    -0.38300
C1715       C  0.10280298  0.75573284  0.13349919    -0.05000
C1716       C  0.11943867  0.77207371  0.10983047    -0.02100
C1717       C  0.14445559  0.77520417  0.10622911     0.02900
C1718       C  0.15196358  0.76036907  0.12407655    -0.05000
C1719       C  0.13307723  0.73942427  0.14127211    -0.02100
C1720       C  0.10873911  0.73761422  0.14701526     0.02900
C1721       C  0.11132662  0.78583062  0.08910766     0.37500
C1722       C  0.13905768  0.72018426  0.15327061     0.37500
C1723       C  0.08994042  0.71717585  0.16652637     0.35900
C1724       C  0.16264344  0.79400875  0.08464199     0.35900
N1725       N  0.07488134  0.70073584  0.18195607    -0.38900
N1726       N  0.17684016  0.80890167  0.06708074    -0.38900
N1727       N  0.14383866  0.70466492  0.16227734    -0.38300
N1728       N  0.10485052  0.79626325  0.07168669    -0.38300
O1729       O  0.19588756  0.76034850  0.61682105    -0.81400
C1730       C  0.26292897  0.79592592  0.72109676     0.97900
O1731       O  0.24255909  0.79726886  0.71696909    -0.70600
O1732       O  0.24325191  0.82097016  0.66740915    -0.74200
Al1733     Al  0.21904195  0.78889556  0.68342271     1.49000
C1734       C  0.24625038  0.82754581  0.63951030     0.93200
O1735       O  0.26892287  0.78962656  0.62000615    -0.80400
O1736       O  0.21807780  0.72206959  0.65678573    -0.71200
Al1737     Al  0.23251187  0.77519604  0.62027529     1.90100
O1738       O  0.26994372  0.76065580  0.65074469    -0.73000
O1739       O  0.21658622  0.74044482  0.71339828    -0.72900
O1740       O  0.26728365  0.78070935  0.70479260    -0.78500
O1741       O  0.19372375  0.75893580  0.70242240    -0.76700
O1742       O  0.23123453  0.77217589  0.66138243    -1.12900
O1743       O  0.19245596  0.78376173  0.65435716    -0.72000
C1744       C  0.18268157  0.76796871  0.63186145     0.98700
C1745       C  0.28018669  0.77772461  0.62979234     0.95100
Al1746     Al  0.24211248  0.75250165  0.67995857     1.55600
O1747       O  0.23852027  0.81033473  0.61848864    -0.76700
C1748       C  0.19676654  0.74291316  0.71811262     0.99200
C1749       C  0.21722375  0.72074339  0.62750108     0.94100
O1750       O  0.22705085  0.74142964  0.61218779    -0.82000
O1751       O  0.23275799  0.92761979  0.62622654    -0.81400
C1752       C  0.20421633  0.96601752  0.72797444     0.97900
O1753       O  0.19820822  0.94483982  0.71457558    -0.70600
O1754       O  0.19014425  0.91318755  0.66913876    -0.74200
Al1755     Al  0.21993364  0.93584747  0.69326220     1.49000
C1756       C  0.17857634  0.91664085  0.64666358     0.93200
O1757       O  0.22094573  0.98540889  0.61878998    -0.80400
O1758       O  0.27132485  0.51029769  0.65052546    -0.73900
Al1759     Al  0.22719563  0.95717503  0.62709037     1.90100
O1760       O  0.22218037  0.50209915  0.66426912    -0.73000
O1761       O  0.27274160  0.49041221  0.70472803    -0.72900
O1762       O  0.22469001  0.48589519  0.72047154    -0.78500
O1763       O  0.24696298  0.95225043  0.72356516    -0.76700
O1764       O  0.23122580  0.96275253  0.66808363    -1.12900
O1765       O  0.24047017  0.92378783  0.67469554    -0.72000
C1766       C  0.24128858  0.91848751  0.64661790     0.98700
C1767       C  0.21648959  0.49975280  0.63577442     0.95100
Al1768     Al  0.24646713  0.49449020  0.68363095     1.55600
O1769       O  0.19043429  0.93584601  0.62918991    -0.76700
C1770       C  0.26879448  0.97275653  0.72339636     0.99200
C1771       C  0.27777637  0.50081629  0.62807833     0.94100
O1772       O  0.26307516  0.97757934  0.61999880    -0.82000
O1773       O  0.06608554  0.80859199  0.62999069    -0.81400
C1774       C  0.03037702  0.73036394  0.72314693     0.97900
O1775       O  0.05167884  0.75122097  0.72142788    -0.70600
O1776       O  0.07968161  0.75739993  0.67144745    -0.74200
Al1777     Al  0.06727694  0.77800730  0.69187442     1.49000
C1778       C  0.08505628  0.75903360  0.64290094     0.93200
O1779       O  0.02433524  0.73521252  0.61774720    -0.80400
O1780       O  0.49498399  0.77286247  0.66549978    -0.73900
Al1781     Al  0.04469898  0.77148269  0.62595325     1.90100
O1782       O  0.49041104  0.72475451  0.65359963    -0.73000
O1783       O  0.51168737  0.77261084  0.72116806    -0.72900
O1784       O  0.50753735  0.72426271  0.70877905    -0.78500
O1785       O  0.05806092  0.79990152  0.71395000    -0.76700
O1786       O  0.03978626  0.76699268  0.66690641    -1.12900
O1787       O  0.08974555  0.80784071  0.66861282    -0.72000
C1788       C  0.08593512  0.82003772  0.64736815     0.98700
C1789       C  0.49982954  0.71859564  0.63101922     0.95100
Al1790     Al  0.50405368  0.74994193  0.68589359     1.55600
O1791       O  0.07427233  0.76702006  0.62425241    -0.76700
C1792       C  0.03640604  0.79580795  0.72406247     0.99200
C1793       C  0.49824609  0.77957622  0.63756346     0.94100
O1794       O  0.01626196  0.77700188  0.61741679    -0.82000
O1795       O  0.23597747  0.63594358  0.95842168    -0.81400
C1796       C  0.19292629  0.56612389  0.56223465     0.97900
O1797       O  0.21322978  0.58776947  0.56051178    -0.70600
O1798       O  0.24052238  0.58856275  0.51325828    -0.74200
Al1799     Al  0.22975014  0.61157223  0.52882649     1.49000
C1800       C  0.24522203  0.58268721  0.98536614     0.93200
O1801       O  0.18680716  0.56381693  0.95390911    -0.80400
O1802       O  0.16615722  0.60995397  0.99086586    -0.73900
Al1803     Al  0.21051806  0.59956580  0.95947140     1.90100
O1804       O  0.15574420  0.55881802  0.98466409    -0.73000
O1805       O  0.17927692  0.60933405  0.55182395    -0.72900
O1806       O  0.17449339  0.56043740  0.54327020    -0.78500
O1807       O  0.22139775  0.63550797  0.54659220    -0.76700
O1808       O  0.20300439  0.59934031  0.50277776    -1.12900
O1809       O  0.25337203  0.63852398  0.50397059    -0.72000
C1810       C  0.25568264  0.64630760  0.97586596     0.98700
C1811       C  0.16408486  0.54992601  0.96371736     0.95100
Al1812     Al  0.17061466  0.58513603  0.51784269     1.55600
O1813       O  0.23671120  0.58981556  0.96285734    -0.76700
C1814       C  0.19977955  0.63051281  0.55775786     0.99200
C1815       C  0.17185167  0.61643709  0.96290809     0.94100
O1816       O  0.18594184  0.60954133  0.94850043    -0.82000
O1817       O  0.35702793  0.58798165  0.96598246    -0.81400
C1818       C  0.43187651  0.62841200  0.55758856     0.97900
O1819       O  0.41187854  0.63000389  0.55351647    -0.70600
O1820       O  0.40449396  0.65081585  0.50629232    -0.74200
Al1821     Al  0.38493576  0.61820123  0.52540212     1.49000
C1822       C  0.40790469  0.65632215  0.98417265     0.93200
O1823       O  0.43036575  0.61915399  0.95462916    -0.80400
O1824       O  0.39118944  0.55261288  0.99471074    -0.73900
Al1825     Al  0.39403202  0.60388542  0.96265369     1.90100
O1826       O  0.43926461  0.59612120  0.98708301    -0.73000
O1827       O  0.38718360  0.56795919  0.54801109    -0.72900
O1828       O  0.43554243  0.61252732  0.54186520    -0.78500
O1829       O  0.36446501  0.58804721  0.54800900    -0.76700
O1830       O  0.39637129  0.60204822  0.49999414    -1.12900
O1831       O  0.35442720  0.60988482  0.50289515    -0.72000
C1832       C  0.34495499  0.59498561  0.98414245     0.98700
C1833       C  0.44534257  0.61118559  0.96420372     0.95100
Al1834     Al  0.41164054  0.58456911  0.51536540     1.55600
O1835       O  0.39939491  0.63859129  0.96368315    -0.76700
C1836       C  0.36787486  0.56977900  0.55679318     0.99200
C1837       C  0.38528963  0.55076613  0.96628843     0.94100
O1838       O  0.38802734  0.57046700  0.95232145    -0.82000
O1839       O  0.41854541  0.77219346  0.95873678    -0.81400
C1840       C  0.36901257  0.79344995  0.55643612     0.97900
O1841       O  0.37570658  0.77635496  0.55577434    -0.70600
O1842       O  0.35527929  0.74901679  0.50560473    -0.74200
Al1843     Al  0.38893062  0.76476795  0.52297702     1.49000
C1844       C  0.35013070  0.74321147  0.97862221     0.93200
O1845       O  0.37665783  0.80458994  0.95280318    -0.80400
O1846       O  0.44380671  0.83961778  0.99583157    -0.73900
Al1847     Al  0.39781816  0.78899791  0.95845382     1.90100
O1848       O  0.39734330  0.83765446  0.98430253    -0.73000
O1849       O  0.42853919  0.81710015  0.55229616    -0.72900
O1850       O  0.38026489  0.81301809  0.53912820    -0.78500
O1851       O  0.42098868  0.77740555  0.54287379    -0.76700
O1852       O  0.39996649  0.79251234  0.49938307    -1.12900
O1853       O  0.39983022  0.74686608  0.49611775    -0.72000
C1854       C  0.41376906  0.75308384  0.97572887     0.98700
C1855       C  0.38146413  0.82680315  0.96212499     0.95100
Al1856     Al  0.41199387  0.82371721  0.51711347     1.55600
O1857       O  0.36630282  0.75594833  0.95783721    -0.76700
C1858       C  0.43258242  0.79840556  0.55792707     0.99200
C1859       C  0.44683768  0.83804569  0.96707528     0.94100
O1860       O  0.42900299  0.82077673  0.95033460    -0.82000
O1861       O  0.40724378  0.96892736  0.80115131    -0.81400
C1862       C  0.35834872  0.89401568  0.89051891     0.97900
O1863       O  0.38041297  0.90801285  0.87924556    -0.70600
O1864       O  0.41527413  0.93411324  0.83890909    -0.74200
Al1865     Al  0.39332193  0.94148657  0.86416675     1.49000
C1866       C  0.41255020  0.92269099  0.81325956     0.93200
O1867       O  0.34486767  0.90364474  0.78318175    -0.80400
O1868       O  0.32268618  0.92985707  0.81682592    -0.73900
Al1869     Al  0.37508942  0.93603135  0.79629587     1.90100
O1870       O  0.32610140  0.88541879  0.82685333    -0.73000
O1871       O  0.34143121  0.94595554  0.87336473    -0.72900
O1872       O  0.33985894  0.89841347  0.88486069    -0.78500
O1873       O  0.37696717  0.95134989  0.89607129    -0.76700
O1874       O  0.36788576  0.93123143  0.83655630    -1.12900
O1875       O  0.40958314  0.97631775  0.85131600    -0.72000
C1876       C  0.41819052  0.98356127  0.82443112     0.98700
C1877       C  0.32928842  0.88360671  0.79828766     0.95100
Al1878     Al  0.33508960  0.91613301  0.84948466     1.55600
O1879       O  0.39346456  0.91740698  0.79584735    -0.76700
C1880       C  0.35911427  0.95704499  0.89356800     0.99200
C1881       C  0.33456910  0.94792190  0.79743662     0.94100
O1882       O  0.35807650  0.95563860  0.79165052    -0.82000
O1883       O  0.02661837  0.92713907  0.78483029    -0.81400
C1884       C  0.09402837  0.96108693  0.88976837     0.97900
O1885       O  0.07337745  0.96178567  0.88569307    -0.70600
O1886       O  0.07370098  0.98633593  0.83708528    -0.74200
Al1887     Al  0.05005946  0.95354858  0.85212962     1.49000
C1888       C  0.07773458  0.99378270  0.80948525     0.93200
O1889       O  0.10013066  0.95569659  0.78576435    -0.80400
O1890       O  0.05362160  0.88822419  0.82176641    -0.73900
Al1891     Al  0.06354497  0.94160557  0.78760074     1.90100
O1892       O  0.10387621  0.92980857  0.81865916    -0.73000
O1893       O  0.04907932  0.90460395  0.87881710    -0.72900
O1894       O  0.09888820  0.94659995  0.87287321    -0.78500
O1895       O  0.02523607  0.92255211  0.87037600    -0.76700
O1896       O  0.06290547  0.93784518  0.82875080    -1.12900
O1897       O  0.02332044  0.94903234  0.82402623    -0.72000
C1898       C  0.01335899  0.93404598  0.80100191     0.98700
C1899       C  0.11347446  0.94661309  0.79752868     0.95100
Al1900     Al  0.07519571  0.91883543  0.84645957     1.55600
O1901       O  0.07039323  0.97718161  0.78771138    -0.76700
C1902       C  0.02910485  0.90644898  0.88488500     0.99200
C1903       C  0.05164965  0.88733536  0.79251852     0.94100
O1904       O  0.05739828  0.90782306  0.77802406    -0.82000
O1905       O  0.08453510  0.60749085  0.79920492    -0.81400
C1906       C  0.04087008  0.63577280  0.89799354     0.97900
O1907       O  0.05005820  0.62072390  0.89992985    -0.70600
O1908       O  0.02454084  0.58881961  0.85370586    -0.74200
Al1909     Al  0.05955584  0.60576722  0.86662328     1.49000
C1910       C  0.01717027  0.58041461  0.82653735     0.93200
O1911       O  0.04247618  0.63979791  0.79497050    -0.80400
O1912       O  0.11296143  0.67686763  0.83067249    -0.73900
Al1913     Al  0.06379883  0.62426000  0.79960072     1.90100
O1914       O  0.06561756  0.67449730  0.82334006    -0.73000
O1915       O  0.10134980  0.65997849  0.88875930    -0.72900
O1916       O  0.05086878  0.65423341  0.87891392    -0.78500
O1917       O  0.09323052  0.61988312  0.88123227    -0.76700
O1918       O  0.06856085  0.63140519  0.84000067    -1.12900
O1919       O  0.06712968  0.58456450  0.84070031    -0.72000
C1920       C  0.08028277  0.58868185  0.81649351     0.98700
C1921       C  0.04847800  0.66275351  0.80254435     0.95100
Al1922     Al  0.08161640  0.66381429  0.85448848     1.55600
O1923       O  0.03183979  0.59121354  0.80361526    -0.76700
C1924       C  0.10705832  0.64214213  0.89277217     0.99200
C1925       C  0.11370591  0.67409266  0.80164843     0.94100
O1926       O  0.09455747  0.65569497  0.78741365    -0.82000
C1927       C  0.08905318  0.52226120  0.80360630    -0.05000
C1928       C  0.10228777  0.53947590  0.82844223    -0.02100
C1929       C  0.10030166  0.56193259  0.83250870     0.02900
C1930       C  0.08923670  0.56989776  0.80885309    -0.05000
C1931       C  0.08213180  0.55595899  0.78038622    -0.02100
C1932       C  0.08165714  0.53182695  0.77790770     0.02900
C1933       C  0.11654589  0.53325951  0.85103790     0.37500
C1934       C  0.07249867  0.56476942  0.75501895     0.37500
C1935       C  0.07289147  0.01652474  0.74983013     0.35900
C1936       C  0.10651091  0.57426574  0.86287072     0.35900
N1937       N  0.06637969  0.00453605  0.72698678    -0.38900
N1938       N  0.11076276  0.58235758  0.88798005    -0.38900
N1939       N  0.06479215  0.57179412  0.73475776    -0.38300
N1940       N  0.12817320  0.52871983  0.86907604    -0.38300
C1941       C  0.44348575  0.50816556  0.82211263    -0.05000
C1942       C  0.44616443  0.53001346  0.80593942    -0.02100
C1943       C  0.47022573  0.55364881  0.80674046     0.02900
C1944       C  0.49196843  0.55479530  0.82175917    -0.05000
C1945       C  0.48974816  0.53225046  0.83541723    -0.02100
C1946       C  0.46552782  0.50940737  0.83661006     0.02900
C1947       C  0.42423416  0.52841406  0.78907033     0.37500
C1948       C  0.51250009  0.53218375  0.84801957     0.37500
C1949       C  0.46375448  0.48727688  0.85304127     0.35900
C1950       C  0.47229226  0.57702528  0.79359194     0.35900
N1951       N  0.46335541  0.96990679  0.86601984    -0.38900
N1952       N  0.47384674  0.59577619  0.78347254    -0.38900
N1953       N  0.03078780  0.53290919  0.86084250    -0.38300
N1954       N  0.40692452  0.52726757  0.77523386    -0.38300
C1955       C  0.43364067  0.91803971  0.80286627    -0.05000
C1956       C  0.44092963  0.90303416  0.82109875    -0.02100
C1957       C  0.46510946  0.90449969  0.81625137     0.02900
C1958       C  0.48288873  0.92254298  0.79512160    -0.05000
C1959       C  0.47448407  0.93518703  0.77449158    -0.02100
C1960       C  0.44962844  0.93262942  0.77803706     0.02900
C1961       C  0.42427289  0.88725737  0.84595464     0.37500
C1962       C  0.99458469  0.95406894  0.75162387     0.37500
C1963       C  0.44159338  0.94695394  0.75800833     0.35900
C1964       C  0.47188029  0.88761220  0.83311618     0.35900
N1965       N  0.43514671  0.95835140  0.74202959    -0.38900
N1966       N  0.47684678  0.87352530  0.84592257    -0.38900
N1967       N  0.00826138  0.96741930  0.73255083    -0.38300
N1968       N  0.41120832  0.87481205  0.86600539    -0.38300
C1969       C  0.35574863  0.87343708  0.91178350    -0.05000
C1970       C  0.36604931  0.88068382  0.94193825    -0.02100
C1971       C  0.37178182  0.86417884  0.95954103     0.02900
C1972       C  0.36956036  0.84108044  0.94612849    -0.05000
C1973       C  0.35785458  0.83329115  0.91614536    -0.02100
C1974       C  0.35039312  0.84912715  0.89959946     0.02900
C1975       C  0.37337426  0.90648751  0.95374993     0.37500
C1976       C  0.35518494  0.81018390  0.90078888     0.37500
C1977       C  0.33905965  0.84135136  0.86879940     0.35900
C1978       C  0.38104813  0.87209542  0.99106799     0.35900
N1979       N  0.32997702  0.83493377  0.84431452    -0.38900
N1980       N  0.38863989  0.87896949  0.01602421    -0.38900
N1981       N  0.35322080  0.79193521  0.88818723    -0.38300
N1982       N  0.37995753  0.92724253  0.96308592    -0.38300
C1983       C  0.47084447  0.85756062  0.95162726    -0.05000
C1984       C  0.48922154  0.85086443  0.94099539    -0.02100
C1985       C  0.00891144  0.86710678  0.92086273     0.02900
C1986       C  0.00986046  0.89003297  0.90936805    -0.05000
C1987       C  0.99187641  0.89723901  0.92160865    -0.02100
C1988       C  0.47355983  0.88179271  0.94391966     0.02900
C1989       C  0.48720413  0.82655014  0.95079336     0.37500
C1990       C  0.99286770  0.92141105  0.91308169     0.37500
C1991       C  0.45590688  0.88963934  0.95706020     0.35900
C1992       C  0.02808573  0.85996181  0.91172980     0.35900
N1993       N  0.44210750  0.89616020  0.96768365    -0.38900
N1994       N  0.04345402  0.85421719  0.90481981    -0.38900
N1995       N  0.99334095  0.94052840  0.90634987    -0.38300
N1996       N  0.48549264  0.80716697  0.95883805    -0.38300
C1997       C  0.01729602  0.63025594  0.91685977    -0.05000
C1998       C  0.01138762  0.65013420  0.92442794    -0.02100
C1999       C  0.48835795  0.64388542  0.94054328     0.02900
C2000       C  0.46981046  0.61790747  0.94748902    -0.05000
C2001       C  0.47499136  0.59777475  0.93951173    -0.02100
C2002       C  0.49851949  0.60341339  0.92516653     0.02900
C2003       C  0.03045361  0.67715927  0.91931564     0.37500
C2004       C  0.45547616  0.57076304  0.94480865     0.37500
C2005       C  0.00463273  0.58302563  0.92095034     0.35900
C2006       C  0.48326586  0.66472179  0.94890715     0.35900
N2007       N  0.00830244  0.56566556  0.91787845    -0.38900
N2008       N  0.47905414  0.68126989  0.95545430    -0.38900
N2009       N  0.44007500  0.54921303  0.94884767    -0.38300
N2010       N  0.04574382  0.69883485  0.91591548    -0.38300
C2011       C  0.36140933  0.97947878  0.91179015    -0.05000
C2012       C  0.35624490  0.97782760  0.94378752    -0.02100
C2013       C  0.36311795  0.50104832  0.96216509     0.02900
C2014       C  0.37594617  0.52585880  0.94794499    -0.05000
C2015       C  0.37985892  0.52686164  0.91526389    -0.02100
C2016       C  0.37190081  0.50390080  0.89780359     0.02900
C2017       C  0.34278166  0.95246593  0.95806702     0.37500
C2018       C  0.39333015  0.55147770  0.89909770     0.37500
C2019       C  0.37512135  0.50526087  0.86441058     0.35900
C2020       C  0.35665226  0.49879496  0.99477274     0.35900
N2021       N  0.37736834  0.50635077  0.83777394    -0.38900
N2022       N  0.35203350  0.99626633  0.02038572    -0.38900
N2023       N  0.40406393  0.57097393  0.88602619    -0.38300
N2024       N  0.33167269  0.93221163  0.96940965    -0.38300
C2025       C  0.41673978  0.68397361  0.97539070    -0.05000
C2026       C  0.40618000  0.68976135  0.94896654    -0.02100
C2027       C  0.40865489  0.71466938  0.94594738     0.02900
C2028       C  0.42243387  0.73412618  0.96850462    -0.05000
C2029       C  0.43768963  0.72958174  0.48452575    -0.02100
C2030       C  0.43406896  0.70433073  0.48748909     0.02900
C2031       C  0.39140955  0.66996624  0.92570629     0.37500
C2032       C  0.45531740  0.75038763  0.50524238     0.37500
C2033       C  0.44891438  0.69955065  0.51069248     0.35900
C2034       C  0.39451407  0.71930995  0.92166552     0.35900
N2035       N  0.46080799  0.69585234  0.52923857    -0.38900
N2036       N  0.38307344  0.72284732  0.90235444    -0.38900
N2037       N  0.46946390  0.76701848  0.52165563    -0.38300
N2038       N  0.37987017  0.65429993  0.90692127    -0.38300
C2039       C  0.13004190  0.64601545  0.91071363    -0.05000
C2040       C  0.13039429  0.64776725  0.94328952    -0.02100
C2041       C  0.14613626  0.64068677  0.96084179     0.02900
C2042       C  0.16105775  0.63111015  0.94568093    -0.05000
C2043       C  0.16404409  0.63411915  0.91297570    -0.02100
C2044       C  0.14793346  0.64056010  0.89567538     0.02900
C2045       C  0.11267740  0.65435601  0.95873213     0.37500
C2046       C  0.18262531  0.62945287  0.89619932     0.37500
C2047       C  0.14718054  0.63781281  0.86210737     0.35900
C2048       C  0.14685051  0.64339431  0.99429976     0.35900
N2049       N  0.14624508  0.63481266  0.83549363    -0.38900
N2050       N  0.13189920  0.63234260  0.52323799    -0.38900
N2051       N  0.19734768  0.62577029  0.88264281    -0.38300
N2052       N  0.09841478  0.65947660  0.97098273    -0.38300
C2053       C  0.11271414  0.97879594  0.91388933    -0.05000
C2054       C  0.13995254  0.49058608  0.90929691    -0.02100
C2055       C  0.15691299  0.51236485  0.92781297     0.02900
C2056       C  0.14682660  0.52336501  0.94945721    -0.05000
C2057       C  0.11986304  0.00889432  0.95708373    -0.02100
C2058       C  0.10319256  0.98639802  0.93963217     0.02900
C2059       C  0.15063783  0.48153282  0.88512039     0.37500
C2060       C  0.10873480  0.01684378  0.98190820     0.37500
C2061       C  0.07598419  0.97101937  0.94821566     0.35900
C2062       C  0.18475262  0.52301967  0.92445168     0.35900
N2063       N  0.05433812  0.95867360  0.95499073    -0.38900
N2064       N  0.20690519  0.53125665  0.92187550    -0.38900
N2065       N  0.10025007  0.01942510  0.50669769    -0.38300
N2066       N  0.15928613  0.47438383  0.86590009    -0.38300
C2067       C  0.28046363  0.66987410  0.96753324    -0.05000
C2068       C  0.28140941  0.69214546  0.95443841    -0.02100
C2069       C  0.30268839  0.71915603  0.46092464     0.02900
C2070       C  0.32691929  0.71815412  0.97095188    -0.05000
C2071       C  0.32682312  0.69528545  0.97976177    -0.02100
C2072       C  0.30388210  0.67132619  0.97773891     0.02900
C2073       C  0.25503871  0.69540452  0.45101559     0.37500
C2074       C  0.34988351  0.69603281  0.99262969     0.37500
C2075       C  0.30450079  0.64835515  0.98799645     0.35900
C2076       C  0.30369421  0.74362109  0.45446168     0.35900
N2077       N  0.30580862  0.63077924  0.99720660    -0.38900
N2078       N  0.30451247  0.76319621  0.44950982    -0.38900
N2079       N  0.36726541  0.69501844  0.00338318    -0.38300
N2080       N  0.23647927  0.69559704  0.44298219    -0.38300
C2081       C  0.31640108  0.58409689  0.98162155    -0.05000
C2082       C  0.30445008  0.58321218  0.95289873    -0.02100
C2083       C  0.27872751  0.57898825  0.95233376     0.02900
C2084       C  0.26449020  0.57372484  0.98032159    -0.05000
C2085       C  0.27214090  0.56704942  0.50410789    -0.02100
C2086       C  0.29847306  0.57431408  0.50585552     0.02900
C2087       C  0.31943208  0.58971685  0.92458246     0.37500
C2088       C  0.25494151  0.55333827  0.52967009     0.37500
C2089       C  0.30926245  0.57660882  0.53660081     0.35900
C2090       C  0.26782722  0.58160320  0.92337797     0.35900
N2091       N  0.31605673  0.57901577  0.56216494    -0.38900
N2092       N  0.25927515  0.58376686  0.90018532    -0.38900
N2093       N  0.24136807  0.54221982  0.55001295    -0.38300
N2094       N  0.33135702  0.59487189  0.90197153    -0.38300
C2095       C  0.48247510  0.78978253  0.62236595    -0.05000
C2096       C  0.45562068  0.77869384  0.62874610    -0.02100
C2097       C  0.43962893  0.78389936  0.60923344     0.02900
C2098       C  0.45020697  0.79990093  0.58311978    -0.05000
C2099       C  0.47721111  0.81293148  0.57841498    -0.02100
C2100       C  0.49338728  0.80825944  0.59825840     0.02900
C2101       C  0.44387299  0.76033981  0.65376968     0.37500
C2102       C  0.48805224  0.82960961  0.55175295     0.37500
C2103       C  0.02261572  0.82262648  0.58880505     0.35900
C2104       C  0.41192619  0.77175548  0.61516828     0.35900
N2105       N  0.04464435  0.83372944  0.58358612    -0.38900
N2106       N  0.38987608  0.76209289  0.62005379    -0.38900
N2107       N  0.99620257  0.84415723  0.52866231    -0.38300
N2108       N  0.43445230  0.74565214  0.67368571    -0.38300
C2109       C  0.45092327  0.64671763  0.58071557    -0.05000
C2110       C  0.44149963  0.65328837  0.60744000    -0.02100
C2111       C  0.45804563  0.67524788  0.62550526     0.02900
C2112       C  0.48408629  0.69217853  0.61600553    -0.05000
C2113       C  0.49418795  0.68383242  0.59125836    -0.02100
C2114       C  0.47766180  0.66110996  0.57386471     0.02900
C2115       C  0.41404438  0.63867310  0.61537336     0.37500
C2116       C  0.02198904  0.69952582  0.57764649     0.37500
C2117       C  0.48780934  0.65392477  0.54729285     0.35900
C2118       C  0.44739960  0.68022476  0.65340019     0.35900
N2119       N  0.99482228  0.64871427  0.52169323    -0.38900
N2120       N  0.43865566  0.68390020  0.67556097    -0.38900
N2121       N  0.04325573  0.71147882  0.56929392    -0.38300
N2122       N  0.39215807  0.62787178  0.62141314    -0.38300
C2123       C  0.04379880  0.86263927  0.77417431    -0.05000
C2124       C  0.04966798  0.86378333  0.74196526    -0.02100
C2125       C  0.04423131  0.84105069  0.72535875     0.02900
C2126       C  0.03534378  0.81733307  0.74077523    -0.05000
C2127       C  0.02660499  0.81518756  0.77149256    -0.02100
C2128       C  0.03056195  0.83769940  0.78810853     0.02900
C2129       C  0.06205129  0.88818058  0.72527602     0.37500
C2130       C  0.01270167  0.78976930  0.78555167     0.37500
C2131       C  0.02000300  0.83481633  0.81896529     0.35900
C2132       C  0.04674985  0.84179699  0.69184128     0.35900
N2133       N  0.01114894  0.83228831  0.84341716    -0.38900
N2134       N  0.04832549  0.84248297  0.66511667    -0.38900
N2135       N  0.00109346  0.76946163  0.79665370    -0.38300
N2136       N  0.07191331  0.90743561  0.71164292    -0.38300
C2137       C  0.02837589  0.71056067  0.74581828    -0.05000
C2138       C  0.02063839  0.68490270  0.73613230    -0.02100
C2139       C  0.02513590  0.66825897  0.75547644     0.02900
C2140       C  0.03713821  0.67703580  0.78521515    -0.05000
C2141       C  0.04171072  0.70174163  0.79607463    -0.02100
C2142       C  0.03784637  0.71843612  0.77631939     0.02900
C2143       C  0.01022612  0.67639052  0.70508088     0.37500
C2144       C  0.05162614  0.71097915  0.82710924     0.37500
C2145       C  0.04482230  0.74443188  0.78713115     0.35900
C2146       C  0.01951101  0.64313367  0.74300641     0.35900
N2147       N  0.05080702  0.76521959  0.79578601    -0.38900
N2148       N  0.01520307  0.62327265  0.73266885    -0.38900
N2149       N  0.05987890  0.71884641  0.85163196    -0.38300
N2150       N  0.50097324  0.66837701  0.67994548    -0.38300
C2151       C  0.19279349  0.54770211  0.58603417    -0.05000
C2152       C  0.17991548  0.52053480  0.58039968    -0.02100
C2153       C  0.18627856  0.50445265  0.59819239     0.02900
C2154       C  0.20560417  0.51531613  0.62172119    -0.05000
C2155       C  0.21617623  0.54185362  0.62974551    -0.02100
C2156       C  0.20966632  0.55786699  0.61230732     0.02900
C2157       C  0.16127108  0.50911175  0.55517597     0.37500
C2158       C  0.23539541  0.55344582  0.65449188     0.37500
C2159       C  0.22176940  0.58527953  0.62076406     0.35900
C2160       C  0.17307217  0.97649006  0.59166035     0.35900
N2161       N  0.23196284  0.60716629  0.62736703    -0.38900
N2162       N  0.16264098  0.95434492  0.58651819    -0.38900
N2163       N  0.25071842  0.56284032  0.67414255    -0.38300
N2164       N  0.14611854  0.99919987  0.53441193    -0.38300
C2165       C  0.34719225  0.54910403  0.57543316    -0.05000
C2166       C  0.32413727  0.53083619  0.56024017    -0.02100
C2167       C  0.30166901  0.51488976  0.57743668     0.02900
C2168       C  0.30198231  0.51727602  0.61022584    -0.05000
C2169       C  0.32548000  0.53524695  0.62539134    -0.02100
C2170       C  0.34825057  0.55031200  0.60801781     0.02900
C2171       C  0.32325919  0.52946276  0.52657414     0.37500
C2172       C  0.32632365  0.53875845  0.65875137     0.37500
C2173       C  0.37289713  0.56652557  0.62361913     0.35900
C2174       C  0.27813590  0.99566872  0.56103899     0.35900
N2175       N  0.39262603  0.57881306  0.63628591    -0.38900
N2176       N  0.25941887  0.98122383  0.54767926    -0.38900
N2177       N  0.32706335  0.54187669  0.68531785    -0.38300
N2178       N  0.32267976  0.52867331  0.49977647    -0.38300
C2179       C  0.18608503  0.96560708  0.75224722    -0.05000
C2180       C  0.17424141  0.94408876  0.77236791    -0.02100
C2181       C  0.15129825  0.93843457  0.78835736     0.02900
C2182       C  0.14024354  0.95483336  0.78530765    -0.05000
C2183       C  0.15445079  0.97845252  0.76880326    -0.02100
C2184       C  0.17697598  0.98356673  0.75197367     0.02900
C2185       C  0.18486661  0.92671704  0.77536964     0.37500
C2186       C  0.14612135  0.49720324  0.76877213     0.37500
C2187       C  0.19057635  0.50656896  0.73402253     0.35900
C2188       C  0.13854573  0.91471923  0.80627538     0.35900
N2189       N  0.20129573  0.52546294  0.71981380    -0.38900
N2190       N  0.12848252  0.89575370  0.82046600    -0.38900
N2191       N  0.13954966  0.51263724  0.76905637    -0.38300
N2192       N  0.19313796  0.91273217  0.77769735    -0.38300
C2193       C  0.28951409  0.97395797  0.74418811    -0.05000
C2194       C  0.31216750  0.97556080  0.73143258    -0.02100
C2195       C  0.32728738  0.96771418  0.74896780     0.02900
C2196       C  0.32061520  0.95938381  0.78011335    -0.05000
C2197       C  0.29972428  0.96096980  0.79382940    -0.02100
C2198       C  0.28411878  0.96787371  0.77584066     0.02900
C2199       C  0.31793963  0.98168875  0.69890876     0.37500
C2200       C  0.29400400  0.95533420  0.82642259     0.37500
C2201       C  0.26211208  0.46898035  0.78905779     0.35900
C2202       C  0.34785468  0.96552422  0.73343434     0.35900
N2203       N  0.24498113  0.47042578  0.79978918    -0.38900
N2204       N  0.36399352  0.96351206  0.72080317    -0.38900
N2205       N  0.28657464  0.44811691  0.85127601    -0.38300
N2206       N  0.32256525  0.98607737  0.67290285    -0.38300
C2207       C  0.10545001  0.84808176  0.64403173    -0.05000
C2208       C  0.11469877  0.86420526  0.67085906    -0.02100
C2209       C  0.13507856  0.88977295  0.66849929     0.02900
C2210       C  0.15070886  0.89743184  0.64211314    -0.05000
C2211       C  0.14101330  0.88261900  0.61460694    -0.02100
C2212       C  0.11725932  0.85863805  0.61520576     0.02900
C2213       C  0.10563575  0.85464943  0.70173522     0.37500
C2214       C  0.15583575  0.89142904  0.58630952     0.37500
C2215       C  0.10590995  0.84467428  0.58655498     0.35900
C2216       C  0.13955385  0.90842242  0.69299421     0.35900
N2217       N  0.09672792  0.83423818  0.56329419    -0.38900
N2218       N  0.14168546  0.92312533  0.71214977    -0.38900
N2219       N  0.16766476  0.89851778  0.56369055    -0.38300
N2220       N  0.10024891  0.84832381  0.72717769    -0.38300
C2221       C  0.34728070  0.78966963  0.57729083    -0.05000
C2222       C  0.32671489  0.76414590  0.58369323    -0.02100
C2223       C  0.30575973  0.76043033  0.60250059     0.02900
C2224       C  0.30428732  0.78202764  0.61409287    -0.05000
C2225       C  0.32458574  0.80745344  0.60770274    -0.02100
C2226       C  0.34642348  0.81123262  0.59043352     0.02900
C2227       C  0.32598930  0.74124933  0.57005808     0.37500
C2228       C  0.32296383  0.82983976  0.61871895     0.37500
C2229       C  0.36842894  0.83728210  0.58741842     0.35900
C2230       C  0.28483186  0.73411669  0.60815047     0.35900
N2231       N  0.38616287  0.85801827  0.58543430    -0.38900
N2232       N  0.26838296  0.71303439  0.61248924    -0.38900
N2233       N  0.32149404  0.84764951  0.62724562    -0.38300
N2234       N  0.32476176  0.72258140  0.55965176    -0.38300
C2235       C  0.20657372  0.69537527  0.61002510    -0.05000
C2236       C  0.20605831  0.69528024  0.57693514    -0.02100
C2237       C  0.20279018  0.67344836  0.56018882     0.02900
C2238       C  0.19842678  0.65099502  0.57574782    -0.05000
C2239       C  0.19443848  0.64918848  0.60796101    -0.02100
C2240       C  0.19882514  0.67143557  0.62528369     0.02900
C2241       C  0.20892647  0.71736743  0.55937869     0.37500
C2242       C  0.18611021  0.62458270  0.62317425     0.37500
C2243       C  0.19540406  0.66935478  0.65859789     0.35900
C2244       C  0.20396346  0.67398435  0.52655698     0.35900
N2245       N  0.19250926  0.66750512  0.68514391    -0.38900
N2246       N  0.20474948  0.67413874  0.49980591    -0.38900
N2247       N  0.17901222  0.60484619  0.63530541    -0.38300
N2248       N  0.21123246  0.73481787  0.54503423    -0.38300
C2249       C  0.28167210  0.81348304  0.74501819    -0.05000
C2250       C  0.27197176  0.81833537  0.77263944    -0.02100
C2251       C  0.28791542  0.84029763  0.79120980     0.02900
C2252       C  0.31380872  0.85787174  0.78211384    -0.05000
C2253       C  0.32449470  0.85072971  0.75704137    -0.02100
C2254       C  0.30847066  0.82854292  0.73859176     0.02900
C2255       C  0.24520209  0.80090063  0.78161840     0.37500
C2256       C  0.35204301  0.86585353  0.75033999     0.37500
C2257       C  0.31934640  0.82217528  0.71207929     0.35900
C2258       C  0.27704890  0.84488059  0.81908239     0.35900
N2259       N  0.32809928  0.81699466  0.69108694    -0.38900
N2260       N  0.26827376  0.84815607  0.84145686    -0.38900
N2261       N  0.37401500  0.87757987  0.74483633    -0.38300
N2262       N  0.22382931  0.78700768  0.78850718    -0.38300
C2263       C  0.13605000  0.69367680  0.78298127    -0.05000
C2264       C  0.13109989  0.70649658  0.75876559    -0.02100
C2265       C  0.15158761  0.72511875  0.74085044     0.02900
C2266       C  0.17652640  0.72714935  0.74195203    -0.05000
C2267       C  0.18188318  0.71526018  0.76718643    -0.02100
C2268       C  0.16216477  0.70048438  0.78898724     0.02900
C2269       C  0.10509681  0.70194382  0.75302484     0.37500
C2270       C  0.20799093  0.71972424  0.77234325     0.37500
C2271       C  0.16948866  0.69492046  0.81869330     0.35900
C2272       C  0.14707006  0.74367349  0.72399111     0.35900
N2273       N  0.17650363  0.69237514  0.84275162    -0.38900
N2274       N  0.14354108  0.75891683  0.71159830    -0.38900
N2275       N  0.22880699  0.72323887  0.77657642    -0.38300
N2276       N  0.08474384  0.69897009  0.74728167    -0.38300
C2277       C  0.25633577  0.85552525  0.63283344    -0.05000
C2278       C  0.26956701  0.87368792  0.65670415    -0.02100
C2279       C  0.26595289  0.89520964  0.66049327     0.02900
C2280       C  0.25103182  0.90013931  0.63849212    -0.05000
C2281       C  0.24387335  0.88547201  0.61031731    -0.02100
C2282       C  0.24692771  0.86328901  0.60745325     0.02900
C2283       C  0.28540872  0.86916478  0.67882691     0.37500
C2284       C  0.23185113  0.89175825  0.58506272     0.37500
C2285       C  0.24075152  0.84868420  0.57861125     0.35900
C2286       C  0.27551195  0.91012305  0.68896622     0.35900
N2287       N  0.23664494  0.83733083  0.55539686    -0.38900
N2288       N  0.28247827  0.92054688  0.71268837    -0.38900
N2289       N  0.22226277  0.89660798  0.56473560    -0.38300
N2290       N  0.29803117  0.86578525  0.69660956    -0.38300
C2291       C  0.10616754  0.75430806  0.63151670    -0.05000
C2292       C  0.12320602  0.77002821  0.60784691    -0.02100
C2293       C  0.14804359  0.77261180  0.60514982     0.02900
C2294       C  0.15510881  0.75820442  0.62443524    -0.05000
C2295       C  0.13594017  0.73790805  0.64210773    -0.02100
C2296       C  0.11152915  0.73626232  0.64624389     0.02900
C2297       C  0.11566913  0.78363480  0.58617735     0.37500
C2298       C  0.14178503  0.71933386  0.65645064     0.37500
C2299       C  0.09179748  0.71582412  0.66488927     0.35900
C2300       C  0.16645261  0.79042619  0.58299431     0.35900
N2301       N  0.07571386  0.69929972  0.67926824    -0.38900
N2302       N  0.18063111  0.80447366  0.56477980    -0.38900
N2303       N  0.14658633  0.70447460  0.66755489    -0.38300
N2304       N  0.10981357  0.79396702  0.56788887    -0.38300
O2305       O  0.69356259  0.26351612  0.11568051    -0.81400
C2306       C  0.76011639  0.29593816  0.22067868     0.97900
O2307       O  0.73985087  0.29747713  0.21694089    -0.70600
O2308       O  0.74200919  0.32245963  0.16794008    -0.74200
Al2309     Al  0.71695992  0.29030605  0.18286468     1.49000
C2310       C  0.74521312  0.32985356  0.14034412     0.93200
O2311       O  0.76657551  0.29134252  0.11788592    -0.80400
O2312       O  0.71705309  0.22350345  0.15289280    -0.71200
Al2313     Al  0.73011710  0.27767311  0.11880946     1.90100
O2314       O  0.76804286  0.26300502  0.14932164    -0.73000
O2315       O  0.71286620  0.24008777  0.20988902    -0.72900
O2316       O  0.76418827  0.28085613  0.20385105    -0.78500
O2317       O  0.69100008  0.26010194  0.20089447    -0.76700
O2318       O  0.72882197  0.27362306  0.15986165    -1.12900
O2319       O  0.69080865  0.28670806  0.15386677    -0.72000
C2320       C  0.68067542  0.27123471  0.13116392     0.98700
C2321       C  0.77813147  0.27984191  0.12816213     0.95100
Al2322     Al  0.73958540  0.25349251  0.17762256     1.55600
O2323       O  0.73706033  0.31319572  0.11865293    -0.76700
C2324       C  0.69329373  0.24295286  0.21513958     0.99200
C2325       C  0.71688741  0.22329055  0.12358542     0.94100
O2326       O  0.72381229  0.24406568  0.10925113    -0.82000
O2327       O  0.74209507  0.43720087  0.13110835    -0.81400
C2328       C  0.70715265  0.47421049  0.23059341     0.97900
O2329       O  0.71085382  0.45506956  0.23061704    -0.70600
O2330       O  0.68414404  0.42535544  0.18456597    -0.74200
Al2331     Al  0.71853609  0.43832517  0.19815587     1.49000
C2332       C  0.67558666  0.41866770  0.15732626     0.93200
O2333       O  0.70825230  0.47701114  0.12693406    -0.80400
O2334       O  0.77824996  0.00630735  0.16097332    -0.73900
Al2335     Al  0.72530891  0.45748175  0.13140576     1.90100
O2336       O  0.73399771  0.01091857  0.15498083    -0.73000
O2337       O  0.76607192  0.99077478  0.21933989    -0.72900
O2338       O  0.71951117  0.99255826  0.21157981    -0.78500
O2339       O  0.75155074  0.44876165  0.21403021    -0.76700
O2340       O  0.73078299  0.46451213  0.17176362    -1.12900
O2341       O  0.72321464  0.41475261  0.17240081    -0.72000
C2342       C  0.73683837  0.41838475  0.14866040     0.98700
C2343       C  0.71613861  0.00030655  0.13466533     0.95100
Al2344     Al  0.74801647  0.99744368  0.18570636     1.55600
O2345       O  0.69112750  0.42744221  0.13486001    -0.76700
C2346       C  0.76800671  0.47063971  0.22473608     0.99200
C2347       C  0.77845181  0.00193691  0.13225697     0.94100
O2348       O  0.75774577  0.48547840  0.11916434    -0.82000
O2349       O  0.56272982  0.30999370  0.13485832    -0.81400
C2350       C  0.52582385  0.22893694  0.22403614     0.97900
O2351       O  0.54743275  0.24941512  0.22264617    -0.70600
O2352       O  0.57605163  0.25703251  0.17266064    -0.74200
Al2353     Al  0.56340499  0.27707141  0.19452621     1.49000
C2354       C  0.58193766  0.26017117  0.14421586     0.93200
O2355       O  0.52146968  0.23684597  0.11928177    -0.80400
O2356       O  0.99378724  0.27429098  0.16510405    -0.73900
Al2357     Al  0.54154294  0.27294252  0.12879791     1.90100
O2358       O  0.98936865  0.22615635  0.15250188    -0.73000
O2359       O  0.01093974  0.27410584  0.22044371    -0.72900
O2360       O  0.00685467  0.22577929  0.20768387    -0.78500
O2361       O  0.55409148  0.29830726  0.21784440    -0.76700
O2362       O  0.53611677  0.26711450  0.16942460    -1.12900
O2363       O  0.58616412  0.30768553  0.17275911    -0.72000
C2364       C  0.58233029  0.32081368  0.15278532     0.98700
C2365       C  0.99906981  0.22019532  0.12998422     0.95100
Al2366     Al  0.00314125  0.25141876  0.18504208     1.55600
O2367       O  0.57124749  0.26887138  0.12648519    -0.76700
C2368       C  0.53241595  0.29467823  0.22728464     0.99200
C2369       C  0.99700196  0.28136587  0.13732234     0.94100
O2370       O  0.51317060  0.27843825  0.12042804    -0.82000
O2371       O  0.73266326  0.13894693  0.46399760    -0.81400
C2372       C  0.69204470  0.06658428  0.06033871     0.97900
O2373       O  0.71257171  0.08817952  0.05973556    -0.70600
O2374       O  0.73960795  0.08635118  0.01305159    -0.74200
Al2375     Al  0.73028922  0.11087028  0.02705720     1.49000
C2376       C  0.74409223  0.08609440  0.48747111     0.93200
O2377       O  0.68588098  0.06627032  0.45646807    -0.80400
O2378       O  0.66174289  0.10907544  0.49492640    -0.73900
Al2379     Al  0.70830309  0.10208673  0.46338258     1.90100
O2380       O  0.65381298  0.05918606  0.48659361    -0.73000
O2381       O  0.68124130  0.11182493  0.04871791    -0.72900
O2382       O  0.67404789  0.06155281  0.04100683    -0.78500
O2383       O  0.72344111  0.13640583  0.04288118    -0.76700
O2384       O  0.70391569  0.09922658  0.00059081    -1.12900
O2385       O  0.75483304  0.13647582  0.00166230    -0.72000
C2386       C  0.75223012  0.14943752  0.48172000     0.98700
C2387       C  0.66296771  0.05159055  0.46518741     0.95100
Al2388     Al  0.67167992  0.08678657  0.01527116     1.55600
O2389       O  0.73537594  0.09372126  0.46576200    -0.76700
C2390       C  0.70215653  0.13295999  0.05347593     0.99200
C2391       C  0.66729606  0.11587982  0.46698732     0.94100
O2392       O  0.68270163  0.11061503  0.45292028    -0.82000
O2393       O  0.85426934  0.08780107  0.46418053    -0.81400
C2394       C  0.93279215  0.12641771  0.06054861     0.97900
O2395       O  0.91110964  0.12519988  0.05953488    -0.70600
O2396       O  0.90716820  0.14991298  0.01213186    -0.74200
Al2397     Al  0.88583010  0.11624917  0.02878933     1.49000
C2398       C  0.90530055  0.15625545  0.48064429     0.93200
O2399       O  0.92752674  0.11911954  0.45141992    -0.80400
O2400       O  0.88998686  0.05332337  0.49199896    -0.73900
Al2401     Al  0.89125306  0.10374315  0.46008482     1.90100
O2402       O  0.93741607  0.09730715  0.48468378    -0.73000
O2403       O  0.88929672  0.06764993  0.05138450    -0.72900
O2404       O  0.93766904  0.11267736  0.04228847    -0.78500
O2405       O  0.86370160  0.08448435  0.04751676    -0.76700
O2406       O  0.89771815  0.10115117  0.00267778    -1.12900
O2407       O  0.85672147  0.11097479  0.00492051    -0.72000
C2408       C  0.84226400  0.09444884  0.48295105     0.98700
C2409       C  0.94301429  0.11196969  0.46152590     0.95100
Al2410     Al  0.91309361  0.08376528  0.01731105     1.55600
O2411       O  0.89644259  0.13837110  0.46040775    -0.76700
C2412       C  0.86831114  0.06734366  0.05774592     0.99200
C2413       C  0.88346774  0.05096768  0.46382566     0.94100
O2414       O  0.88530820  0.07026656  0.44978138    -0.82000
O2415       O  0.91826110  0.27270495  0.45971063    -0.81400
C2416       C  0.86790273  0.29591204  0.05607872     0.97900
O2417       O  0.87468560  0.27890626  0.05608294    -0.70600
O2418       O  0.85451478  0.24969408  0.00671195    -0.74200
Al2419     Al  0.88810685  0.26655382  0.02449587     1.49000
C2420       C  0.84952917  0.24411157  0.48059939     0.93200
O2421       O  0.87653628  0.30488868  0.45633779    -0.80400
O2422       O  0.94441114  0.33893313  0.49803947    -0.73900
Al2423     Al  0.89759438  0.28928587  0.46054313     1.90100
O2424       O  0.89814715  0.33793775  0.48757775    -0.73000
O2425       O  0.92760691  0.31983909  0.05225165    -0.72900
O2426       O  0.87904478  0.31506625  0.03812218    -0.78500
O2427       O  0.91999989  0.27994328  0.04469605    -0.76700
O2428       O  0.89909737  0.29361682  0.99965583    -1.12900
O2429       O  0.89925753  0.24803280  0.99951106    -0.72000
C2430       C  0.91343197  0.25318116  0.47583039     0.98700
C2431       C  0.88184464  0.32720041  0.46571007     0.95100
Al2432     Al  0.91091023  0.32530684  0.01620989     1.55600
O2433       O  0.86583796  0.25629958  0.45970656    -0.76700
C2434       C  0.93156472  0.30127029  0.05901749     0.99200
C2435       C  0.94702070  0.33769210  0.46913912     0.94100
O2436       O  0.92873146  0.32103620  0.45237428    -0.82000
O2437       O  0.90666184  0.46745461  0.30117778    -0.81400
C2438       C  0.85898836  0.39417061  0.39294452     0.97900
O2439       O  0.88097954  0.40839945  0.38161115    -0.70600
O2440       O  0.91488631  0.43333771  0.33983037    -0.74200
Al2441     Al  0.89329440  0.44132078  0.36498018     1.49000
C2442       C  0.91168949  0.42124457  0.31454881     0.93200
O2443       O  0.84407769  0.40223169  0.28444786    -0.80400
O2444       O  0.82206652  0.42828203  0.31797715    -0.73900
Al2445     Al  0.87438115  0.43446970  0.29718315     1.90100
O2446       O  0.82570941  0.38383686  0.32814984    -0.73000
O2447       O  0.84082942  0.44472751  0.37429777    -0.72900
O2448       O  0.84002072  0.39760159  0.38633708    -0.78500
O2449       O  0.87718124  0.45180956  0.39641260    -0.76700
O2450       O  0.86748658  0.43020256  0.33760368    -1.12900
O2451       O  0.90924311  0.47589041  0.35101560    -0.72000
C2452       C  0.91764008  0.48267127  0.32398344     0.98700
C2453       C  0.82846634  0.38216832  0.29939464     0.95100
Al2454     Al  0.83474660  0.41485094  0.35074006     1.55600
O2455       O  0.89246035  0.41565957  0.29730190    -0.76700
C2456       C  0.85882143  0.45675475  0.39390000     0.99200
C2457       C  0.83375924  0.44583281  0.29792883     0.94100
O2458       O  0.85731514  0.45385773  0.29203837    -0.82000
O2459       O  0.52322513  0.42507677  0.28538374    -0.81400
C2460       C  0.59305286  0.46354006  0.38792843     0.97900
O2461       O  0.57193044  0.46352686  0.38449735    -0.70600
O2462       O  0.56943312  0.48637566  0.33527718    -0.74200
Al2463     Al  0.54732436  0.45357994  0.35173571     1.49000
C2464       C  0.57277521  0.49317463  0.30739762     0.93200
O2465       O  0.59670096  0.45722497  0.28493360    -0.80400
O2466       O  0.55251889  0.38927673  0.32242296    -0.73900
Al2467     Al  0.56016469  0.44129080  0.28718106     1.90100
O2468       O  0.60249849  0.43175770  0.31614420    -0.73000
O2469       O  0.54950633  0.40651717  0.37935735    -0.72900
O2470       O  0.59822215  0.44938683  0.37077316    -0.78500
O2471       O  0.52396902  0.42262987  0.37118556    -0.76700
O2472       O  0.56057727  0.43837794  0.32829330    -1.12900
O2473       O  0.51936141  0.44685932  0.32441368    -0.72000
C2474       C  0.50959115  0.43132969  0.30176557     0.98700
C2475       C  0.61119554  0.44906240  0.29541046     0.95100
Al2476     Al  0.57442469  0.42064823  0.34567266     1.55600
O2477       O  0.56503942  0.47609099  0.28620794    -0.76700
C2478       C  0.52908328  0.40743375  0.38578697     0.99200
C2479       C  0.54997113  0.38780854  0.29325239     0.94100
O2480       O  0.55561784  0.40802372  0.27821553    -0.82000
O2481       O  0.58177205  0.10771672  0.29662993    -0.81400
C2482       C  0.53854838  0.13530332  0.39661473     0.97900
O2483       O  0.54736480  0.11991934  0.39796711    -0.70600
O2484       O  0.52179660  0.08812413  0.35169688    -0.74200
Al2485     Al  0.55693982  0.10527556  0.36448319     1.49000
C2486       C  0.51439535  0.07940881  0.32464414     0.93200
O2487       O  0.53862496  0.13863714  0.29418179    -0.80400
O2488       O  0.60988059  0.17658439  0.32829023    -0.73900
Al2489     Al  0.56052634  0.12384498  0.29771734     1.90100
O2490       O  0.56218472  0.17384124  0.32175857    -0.73000
O2491       O  0.59860956  0.15949210  0.38684885    -0.72900
O2492       O  0.54834459  0.15378777  0.37757516    -0.78500
O2493       O  0.59064742  0.11944677  0.37920587    -0.76700
O2494       O  0.56567845  0.13096899  0.33810569    -1.12900
O2495       O  0.56474478  0.08453145  0.33813947    -0.72000
C2496       C  0.57766960  0.08883429  0.31369959     0.98700
C2497       C  0.54456154  0.16158655  0.30156172     0.95100
Al2498     Al  0.57872536  0.16337259  0.35265519     1.55600
O2499       O  0.52895401  0.09032522  0.30168401    -0.76700
C2500       C  0.60394783  0.14146271  0.39156542     0.99200
C2501       C  0.61013103  0.17405293  0.29913434     0.94100
O2502       O  0.59076268  0.15566722  0.28518839    -0.82000
C2503       C  0.58425054  0.02151897  0.30139135    -0.05000
C2504       C  0.59899584  0.03936498  0.32499083    -0.02100
C2505       C  0.59814945  0.06243613  0.32858074     0.02900
C2506       C  0.58631903  0.07000415  0.30549210    -0.05000
C2507       C  0.57758634  0.05518402  0.27772538    -0.02100
C2508       C  0.57643152  0.03071296  0.27572077     0.02900
C2509       C  0.61403421  0.03341309  0.34663088     0.37500
C2510       C  0.56701632  0.06352804  0.25287247     0.37500
C2511       C  0.56755893  0.51528900  0.24696093     0.35900
C2512       C  0.60609409  0.07572110  0.35828459     0.35900
N2513       N  0.56094691  0.50326975  0.22414435    -0.38900
N2514       N  0.61171731  0.08432574  0.38307750    -0.38900
N2515       N  0.55852380  0.07021152  0.23310308    -0.38300
N2516       N  0.62642298  0.02918458  0.36382768    -0.38300
C2517       C  0.94269764  0.00700603  0.32087557    -0.05000
C2518       C  0.94482072  0.02841801  0.30422575    -0.02100
C2519       C  0.96862470  0.05238026  0.30448723     0.02900
C2520       C  0.99041654  0.05466979  0.32071873    -0.05000
C2521       C  0.98870122  0.03259370  0.33521917    -0.02100
C2522       C  0.96501423  0.00904481  0.33553974     0.02900
C2523       C  0.92248846  0.02601110  0.28748467     0.37500
C2524       C  0.01140501  0.03372574  0.34976672     0.37500
C2525       C  0.96409298  0.98685633  0.35088228     0.35900
C2526       C  0.97038436  0.07487408  0.28920770     0.35900
N2527       N  0.96475613  0.46964034  0.36173591    -0.38900
N2528       N  0.97165724  0.09282583  0.27710052    -0.38900
N2529       N  0.52921383  0.03344820  0.36070270    -0.38300
N2530       N  0.90475911  0.02414480  0.27389739    -0.38300
C2531       C  0.93261475  0.41656466  0.30396439    -0.05000
C2532       C  0.93901444  0.40039024  0.32113795    -0.02100
C2533       C  0.96374293  0.40275973  0.31782465     0.02900
C2534       C  0.98218764  0.42182412  0.29806604    -0.05000
C2535       C  0.97449033  0.43534484  0.27791371    -0.02100
C2536       C  0.94958650  0.43263153  0.28072427     0.02900
C2537       C  0.92061003  0.38223153  0.34312877     0.37500
C2538       C  0.49059737  0.44983677  0.25152320     0.37500
C2539       C  0.94245683  0.44825655  0.26173299     0.35900
C2540       C  0.97054094  0.38624534  0.33548298     0.35900
N2541       N  0.93685374  0.46076141  0.24654607    -0.38900
N2542       N  0.97558759  0.37264248  0.34927226    -0.38900
N2543       N  0.50429074  0.46297015  0.23232839    -0.38300
N2544       N  0.90593636  0.36765904  0.36061046    -0.38300
C2545       C  0.85680990  0.37409346  0.41488401    -0.05000
C2546       C  0.86803861  0.38190677  0.44462465    -0.02100
C2547       C  0.87332693  0.36527283  0.46264340     0.02900
C2548       C  0.87009243  0.34162729  0.44981453    -0.05000
C2549       C  0.85735134  0.33323557  0.42041825    -0.02100
C2550       C  0.85006941  0.34911560  0.40368762     0.02900
C2551       C  0.87616156  0.40803867  0.45582890     0.37500
C2552       C  0.85298461  0.30914578  0.40598169     0.37500
C2553       C  0.83710822  0.34041391  0.37382377     0.35900
C2554       C  0.88259241  0.37317027  0.49420079     0.35900
N2555       N  0.82659850  0.33316123  0.35017066    -0.38900
N2556       N  0.88996506  0.37967490  0.51931596    -0.38900
N2557       N  0.84963098  0.29004605  0.39423918    -0.38300
N2558       N  0.88327951  0.42899473  0.46482550    -0.38300
C2559       C  0.97110722  0.35688686  0.45363622    -0.05000
C2560       C  0.98827024  0.34925880  0.44110017    -0.02100
C2561       C  0.50893323  0.36711005  0.41990918     0.02900
C2562       C  0.51056345  0.39083782  0.41060391    -0.05000
C2563       C  0.49326685  0.39821241  0.42443336    -0.02100
C2564       C  0.97490254  0.38181678  0.44756198     0.02900
C2565       C  0.98441947  0.32362897  0.44794008     0.37500
C2566       C  0.49530282  0.42324921  0.41819675     0.37500
C2567       C  0.95720365  0.38968825  0.46051800     0.35900
C2568       C  0.52766056  0.35987331  0.40917289     0.35900
N2569       N  0.94313830  0.39608614  0.47060774    -0.38900
N2570       N  0.54269501  0.35407557  0.40093562    -0.38900
N2571       N  0.49661335  0.44306029  0.41328667    -0.38300
N2572       N  0.98118558  0.30312969  0.45339141    -0.38300
C2573       C  0.51548878  0.13009393  0.41606578    -0.05000
C2574       C  0.51076209  0.15041906  0.42536041    -0.02100
C2575       C  0.98650488  0.14490664  0.43936769     0.02900
C2576       C  0.96749320  0.11884488  0.44502867    -0.05000
C2577       C  0.97244386  0.09864503  0.43674110    -0.02100
C2578       C  0.99608112  0.10424691  0.42288969     0.02900
C2579       C  0.53098681  0.17731516  0.42232487     0.37500
C2580       C  0.95278016  0.07162340  0.44175400     0.37500
C2581       C  0.50120690  0.08234274  0.41767668     0.35900
C2582       C  0.98187324  0.16577243  0.44905352     0.35900
N2583       N  0.50398519  0.06453230  0.41349795    -0.38900
N2584       N  0.97809574  0.18236968  0.45678224    -0.38900
N2585       N  0.93738345  0.05006183  0.44570579    -0.38300
N2586       N  0.54725653  0.19882365  0.42063770    -0.38300
C2587       C  0.86066336  0.47929354  0.41145762    -0.05000
C2588       C  0.85682713  0.47843321  0.44369861    -0.02100
C2589       C  0.86343716  0.00143812  0.46130352     0.02900
C2590       C  0.87442422  0.02581864  0.44609697    -0.05000
C2591       C  0.87720599  0.02612261  0.41325817    -0.02100
C2592       C  0.86987308  0.00291772  0.39652972     0.02900
C2593       C  0.84485478  0.45353010  0.45909817     0.37500
C2594       C  0.88915088  0.05035383  0.39622135     0.37500
C2595       C  0.87264259  0.00359541  0.36307800     0.35900
C2596       C  0.85941965  0.99990440  0.49451005     0.35900
N2597       N  0.87460733  0.00409712  0.33640734    -0.38900
N2598       N  0.85677184  0.49869405  0.52054601    -0.38900
N2599       N  0.89872635  0.06955218  0.38246677    -0.38300
N2600       N  0.83483929  0.43365687  0.47142372    -0.38300
C2601       C  0.91500200  0.18394632  0.47174097    -0.05000
C2602       C  0.90396293  0.19025560  0.44629478    -0.02100
C2603       C  0.90733901  0.21555198  0.44403131     0.02900
C2604       C  0.92187827  0.23447362  0.46681020    -0.05000
C2605       C  0.93610444  0.22938733  0.99184627    -0.02100
C2606       C  0.93320353  0.20442910  0.99549604     0.02900
C2607       C  0.88740830  0.17055872  0.42383643     0.37500
C2608       C  0.95225581  0.25028805  0.01333997     0.37500
C2609       C  0.94713645  0.20029800  0.02043459     0.35900
C2610       C  0.89315085  0.22114866  0.42072843     0.35900
N2611       N  0.95832488  0.19734800  0.04053394    -0.38900
N2612       N  0.88174836  0.22561830  0.40227459    -0.38900
N2613       N  0.96521512  0.26695119  0.03042503    -0.38300
N2614       N  0.87431255  0.15501382  0.40567096    -0.38300
C2615       C  0.62555919  0.14466848  0.41187495    -0.05000
C2616       C  0.62250067  0.14318338  0.44430293    -0.02100
C2617       C  0.63738088  0.13571067  0.46301482     0.02900
C2618       C  0.65535453  0.12935490  0.44919851    -0.05000
C2619       C  0.66073788  0.13461513  0.41697940    -0.02100
C2620       C  0.64532634  0.14124785  0.39850531     0.02900
C2621       C  0.60217413  0.14682920  0.45801448     0.37500
C2622       C  0.68110602  0.13194101  0.40153723     0.37500
C2623       C  0.64715720  0.14038997  0.36495519     0.35900
C2624       C  0.63365739  0.13428563  0.49626598     0.35900
N2625       N  0.64811893  0.13843075  0.33834555    -0.38900
N2626       N  0.64672929  0.14623355  0.02072874    -0.38900
N2627       N  0.69713437  0.12970939  0.38895509    -0.38300
N2628       N  0.58581895  0.14959210  0.46876967    -0.38300
C2629       C  0.61189613  0.48144875  0.41180322    -0.05000
C2630       C  0.63943153  0.99576939  0.40546013    -0.02100
C2631       C  0.65626732  0.01751246  0.42401566     0.02900
C2632       C  0.64635285  0.02571447  0.44914098    -0.05000
C2633       C  0.61910472  0.50923760  0.45750734    -0.02100
C2634       C  0.60253612  0.48739486  0.43898892     0.02900
C2635       C  0.64977018  0.98924709  0.37853684     0.37500
C2636       C  0.60823670  0.51483157  0.48468268     0.37500
C2637       C  0.57567185  0.47076993  0.44821357     0.35900
C2638       C  0.68368240  0.03155850  0.41613316     0.35900
N2639       N  0.55433090  0.45747495  0.45564161    -0.38900
N2640       N  0.70546109  0.04262578  0.40959954    -0.38900
N2641       N  0.59775420  0.52637315  0.99717913    -0.38300
N2642       N  0.65840177  0.98442116  0.35714273    -0.38300
C2643       C  0.77698821  0.17309383  0.47340072    -0.05000
C2644       C  0.77817601  0.19638916  0.46347346    -0.02100
C2645       C  0.80423784  0.21652043  0.95656703     0.02900
C2646       C  0.82520193  0.21996305  0.47322113    -0.05000
C2647       C  0.82430504  0.19632234  0.47963156    -0.02100
C2648       C  0.80048064  0.17313864  0.47980990     0.02900
C2649       C  0.75817021  0.19024144  0.93931431     0.37500
C2650       C  0.84763272  0.19565346  0.48857060     0.37500
C2651       C  0.80060129  0.14966706  0.48887253     0.35900
C2652       C  0.80504837  0.23995009  0.94552295     0.35900
N2653       N  0.80219357  0.13204276  0.49728950    -0.38900
N2654       N  0.80571543  0.25869011  0.93675996    -0.38900
N2655       N  0.86522994  0.19364002  0.49640323    -0.38300
N2656       N  0.74005706  0.18864207  0.92695568    -0.38300
C2657       C  0.81375238  0.08386118  0.48058240    -0.05000
C2658       C  0.80224717  0.08513737  0.45245366    -0.02100
C2659       C  0.77746976  0.08326616  0.45286789     0.02900
C2660       C  0.76307039  0.07697791  0.48089659    -0.05000
C2661       C  0.77391198  0.06773160  0.00645013    -0.02100
C2662       C  0.80046495  0.07588144  0.00830857     0.02900
C2663       C  0.81692334  0.09126520  0.42391797     0.37500
C2664       C  0.75727627  0.05490563  0.03273531     0.37500
C2665       C  0.81150361  0.07912664  0.03911065     0.35900
C2666       C  0.76836433  0.09021505  0.42530071     0.35900
N2667       N  0.81864931  0.08216007  0.06458057    -0.38900
N2668       N  0.76145942  0.09614331  0.40329286    -0.38900
N2669       N  0.74428660  0.04468324  0.05382746    -0.38300
N2670       N  0.82856942  0.09587504  0.40112802    -0.38300
C2671       C  0.98123316  0.29192782  0.12276907    -0.05000
C2672       C  0.95436689  0.28079213  0.12920078    -0.02100
C2673       C  0.93842913  0.28646707  0.11016774     0.02900
C2674       C  0.94908752  0.30314151  0.08458379    -0.05000
C2675       C  0.97611315  0.31629639  0.08005496    -0.02100
C2676       C  0.99219589  0.31099808  0.09930487     0.02900
C2677       C  0.94248397  0.26175057  0.15352495     0.37500
C2678       C  0.98701487  0.33334720  0.05371229     0.37500
C2679       C  0.52051889  0.32495292  0.09375648     0.35900
C2680       C  0.91059890  0.27369472  0.11559166     0.35900
N2681       N  0.54265502  0.33624937  0.08932670    -0.38900
N2682       N  0.88842665  0.26342698  0.11989644    -0.38900
N2683       N  0.49599893  0.34682088  0.03217507    -0.38300
N2684       N  0.93286717  0.24647822  0.17282655    -0.38300
C2685       C  0.95237229  0.14584279  0.08255397    -0.05000
C2686       C  0.94370680  0.15129593  0.11066341    -0.02100
C2687       C  0.95923379  0.17481387  0.12689067     0.02900
C2688       C  0.98411368  0.19339741  0.11541303    -0.05000
C2689       C  0.99417679  0.18591358  0.08977116    -0.02100
C2690       C  0.97823821  0.16247272  0.07322980     0.02900
C2691       C  0.91806775  0.13312758  0.12253324     0.37500
C2692       C  0.52116656  0.20175680  0.07983599     0.37500
C2693       C  0.98792939  0.15663610  0.04519898     0.35900
C2694       C  0.94883501  0.17946809  0.15519316     0.35900
N2695       N  0.49600085  0.15087996  0.02381589    -0.38900
N2696       N  0.94031543  0.18294941  0.17767853    -0.38900
N2697       N  0.54244175  0.21441506  0.07179450    -0.38300
N2698       N  0.89761459  0.11916014  0.13216984    -0.38300
C2699       C  0.54144952  0.36273569  0.27560251    -0.05000
C2700       C  0.54684518  0.36316656  0.24337286    -0.02100
C2701       C  0.54059937  0.33998303  0.22737957     0.02900
C2702       C  0.53166756  0.31656135  0.24347245    -0.05000
C2703       C  0.52302638  0.31510761  0.27412715    -0.02100
C2704       C  0.52745829  0.33807932  0.29002873     0.02900
C2705       C  0.55915112  0.38719773  0.22594259     0.37500
C2706       C  0.50825668  0.28995239  0.28855957     0.37500
C2707       C  0.51588444  0.33591940  0.32013373     0.35900
C2708       C  0.54186550  0.33993327  0.19379937     0.35900
N2709       N  0.50591012  0.33384959  0.34377387    -0.38900
N2710       N  0.54223672  0.34020786  0.16701821    -0.38900
N2711       N  0.49585933  0.26989553  0.29998666    -0.38300
N2712       N  0.56885287  0.40616986  0.21176216    -0.38300
C2713       C  0.52330205  0.20863142  0.24599766    -0.05000
C2714       C  0.51708249  0.18366877  0.23516087    -0.02100
C2715       C  0.52167164  0.16697264  0.25420552     0.02900
C2716       C  0.53251434  0.17519750  0.28453350    -0.05000
C2717       C  0.53519019  0.19883065  0.29647501    -0.02100
C2718       C  0.53121711  0.21562247  0.27710423     0.02900
C2719       C  0.50845488  0.17617470  0.20333304     0.37500
C2720       C  0.54284867  0.20661737  0.32844978     0.37500
C2721       C  0.53673924  0.24092792  0.28886327     0.35900
C2722       C  0.51746683  0.14254721  0.24096450     0.35900
N2723       N  0.54164643  0.26121456  0.29830369    -0.38900
N2724       N  0.51424626  0.12321734  0.23010225    -0.38900
N2725       N  0.54908661  0.21323524  0.35384625    -0.38300
N2726       N  0.00315382  0.17107713  0.17780570    -0.38300
C2727       C  0.69109788  0.04725691  0.08306798    -0.05000
C2728       C  0.68260158  0.02136998  0.07377962    -0.02100
C2729       C  0.68917072  0.00545730  0.09159597     0.02900
C2730       C  0.70522022  0.01555103  0.11868311    -0.05000
C2731       C  0.71163283  0.04089924  0.12921929    -0.02100
C2732       C  0.70404023  0.05621883  0.11195045     0.02900
C2733       C  0.66888943  0.01159777  0.04446574     0.37500
C2734       C  0.72650782  0.05195475  0.15757530     0.37500
C2735       C  0.71036519  0.08181430  0.12362414     0.35900
C2736       C  0.68010430  0.47907981  0.08082706     0.35900
N2737       N  0.71559659  0.10223874  0.13298829    -0.38900
N2738       N  0.67280773  0.45810494  0.07175148    -0.38900
N2739       N  0.73821336  0.06091513  0.18021292    -0.38300
N2740       N  0.65778125  0.50365396  0.02150316    -0.38300
C2741       C  0.84760998  0.04618703  0.07612213    -0.05000
C2742       C  0.82324574  0.03059728  0.06192828    -0.02100
C2743       C  0.80096284  0.01590326  0.07997713     0.02900
C2744       C  0.80280054  0.01615971  0.11302861    -0.05000
C2745       C  0.82806585  0.02987782  0.12682816    -0.02100
C2746       C  0.85034221  0.04439840  0.10824023     0.02900
C2747       C  0.82109466  0.03011052  0.02831953     0.37500
C2748       C  0.83153221  0.02954129  0.16004955     0.37500
C2749       C  0.87615652  0.05735091  0.12199242     0.35900
C2750       C  0.77624652  0.50156807  0.06394001     0.35900
N2751       N  0.89683312  0.06721974  0.13275988    -0.38900
N2752       N  0.75660476  0.49023033  0.05081820    -0.38900
N2753       N  0.83458210  0.02957224  0.18655365    -0.38300
N2754       N  0.81936573  0.02966923  0.00158392    -0.38300
C2755       C  0.68638679  0.47329744  0.25147870    -0.05000
C2756       C  0.67912110  0.45784840  0.27852855    -0.02100
C2757       C  0.65517756  0.45048355  0.29336536     0.02900
C2758       C  0.63824690  0.45927818  0.28223745    -0.05000
C2759       C  0.64716895  0.47727477  0.25731089    -0.02100
C2760       C  0.67065392  0.48376422  0.24188328     0.02900
C2761       C  0.69576700  0.44840162  0.29075314     0.37500
C2762       C  0.63118525  0.98768416  0.24496485     0.37500
C2763       C  0.67635564  0.99864707  0.21335187     0.35900
C2764       C  0.64801939  0.43302346  0.31949998     0.35900
N2765       N  0.68031734  0.01059967  0.19099140    -0.38900
N2766       N  0.64253864  0.41905081  0.34026277    -0.38900
N2767       N  0.61891358  0.99635258  0.23526689    -0.38300
N2768       N  0.70865367  0.44045994  0.30050057    -0.38300
C2769       C  0.78959834  0.47169857  0.24336008    -0.05000
C2770       C  0.80661649  0.46472857  0.22884431    -0.02100
C2771       C  0.82145232  0.45689983  0.24672091     0.02900
C2772       C  0.81954703  0.45613308  0.27948229    -0.05000
C2773       C  0.80394549  0.46499905  0.29403309    -0.02100
C2774       C  0.78936136  0.47317156  0.27596324     0.02900
C2775       C  0.80755498  0.46405656  0.19522155     0.37500
C2776       C  0.80268336  0.46549805  0.32754090     0.37500
C2777       C  0.77403490  0.98332234  0.29071352     0.35900
C2778       C  0.83705751  0.44768473  0.23100572     0.35900
N2779       N  0.76211950  0.99164477  0.30241634    -0.38900
N2780       N  0.84937227  0.44028506  0.21830842    -0.38900
N2781       N  0.80157225  0.96630498  0.35440687    -0.38300
N2782       N  0.80802672  0.46331239  0.16843793    -0.38300
C2783       C  0.60165696  0.34910029  0.15148360    -0.05000
C2784       C  0.61074224  0.36381083  0.17936311    -0.02100
C2785       C  0.63131025  0.38948189  0.17877121     0.02900
C2786       C  0.64759737  0.39840275  0.15266863    -0.05000
C2787       C  0.63772529  0.38479119  0.12415499    -0.02100
C2788       C  0.61368775  0.36111492  0.12341438     0.02900
C2789       C  0.60123487  0.35264713  0.20955581     0.37500
C2790       C  0.65237862  0.39416860  0.09578158     0.37500
C2791       C  0.60226210  0.34886047  0.09395035     0.35900
C2792       C  0.63563501  0.40629036  0.20543574     0.35900
N2793       N  0.59315619  0.33987576  0.07007339    -0.38900
N2794       N  0.63835788  0.41937700  0.22675837    -0.38900
N2795       N  0.66402764  0.40130670  0.07304462    -0.38300
N2796       N  0.59565900  0.34521797  0.23461504    -0.38300
C2797       C  0.84613254  0.29229672  0.07693548    -0.05000
C2798       C  0.82659439  0.26679854  0.08542249    -0.02100
C2799       C  0.80555199  0.26308538  0.10406590     0.02900
C2800       C  0.80269501  0.28450556  0.11316161    -0.05000
C2801       C  0.82236679  0.30993240  0.10556643    -0.02100
C2802       C  0.84437765  0.31384541  0.08849206     0.02900
C2803       C  0.82715949  0.24378350  0.07444976     0.37500
C2804       C  0.82032178  0.33221925  0.11602538     0.37500
C2805       C  0.86581379  0.34006912  0.08454702     0.35900
C2806       C  0.78630738  0.23680568  0.11278253     0.35900
N2807       N  0.88308230  0.36102891  0.08212946    -0.38900
N2808       N  0.77132547  0.21577216  0.11978005    -0.38900
N2809       N  0.81865746  0.34994627  0.12444042    -0.38300
N2810       N  0.82720333  0.22516087  0.06614765    -0.38300
C2811       C  0.71028625  0.19927211  0.10496520    -0.05000
C2812       C  0.72019418  0.20173679  0.07432506    -0.02100
C2813       C  0.71500838  0.17954867  0.05694091     0.02900
C2814       C  0.70212805  0.15480255  0.07037132    -0.05000
C2815       C  0.69111278  0.15180774  0.10003121    -0.02100
C2816       C  0.69489609  0.17394802  0.11718716     0.02900
C2817       C  0.73727184  0.22693138  0.06066663     0.37500
C2818       C  0.67620833  0.12605096  0.11303114     0.37500
C2819       C  0.68286112  0.17041754  0.14730772     0.35900
C2820       C  0.72229210  0.18211721  0.02451411     0.35900
N2821       N  0.67320553  0.16749600  0.17131484    -0.38900
N2822       N  0.72763439  0.18406714  0.99857682    -0.38900
N2823       N  0.66413926  0.10545595  0.12331402    -0.38300
N2824       N  0.75108309  0.24685804  0.04963020    -0.38300
C2825       C  0.77930031  0.31323989  0.24450244    -0.05000
C2826       C  0.77022811  0.31760141  0.27290869    -0.02100
C2827       C  0.78659209  0.33923913  0.29180830     0.02900
C2828       C  0.81247020  0.35674575  0.28258791    -0.05000
C2829       C  0.82243215  0.35029032  0.25615335    -0.02100
C2830       C  0.80591271  0.32862162  0.23723032     0.02900
C2831       C  0.74365218  0.30000085  0.28236004     0.37500
C2832       C  0.84962091  0.36604304  0.24792983     0.37500
C2833       C  0.81604283  0.32335651  0.20919638     0.35900
C2834       C  0.77597485  0.34398790  0.31977472     0.35900
N2835       N  0.82428064  0.31917682  0.18695967    -0.38900
N2836       N  0.76736146  0.34758698  0.34208140    -0.38900
N2837       N  0.87125061  0.37846461  0.24108147    -0.38300
N2838       N  0.72244065  0.28592608  0.28967835    -0.38300
C2839       C  0.63229021  0.19357241  0.28003355    -0.05000
C2840       C  0.62708426  0.20561273  0.25509042    -0.02100
C2841       C  0.64749228  0.22405665  0.23680859     0.02900
C2842       C  0.67264219  0.22656198  0.23834825    -0.05000
C2843       C  0.67803549  0.21495714  0.26384823    -0.02100
C2844       C  0.65848808  0.20071570  0.28604392     0.02900
C2845       C  0.60088431  0.20043749  0.24899752     0.37500
C2846       C  0.70400065  0.21895563  0.26868971     0.37500
C2847       C  0.66608877  0.19615218  0.31613262     0.35900
C2848       C  0.64273486  0.24217759  0.21940423     0.35900
N2849       N  0.67324629  0.19445340  0.34048210    -0.38900
N2850       N  0.63904023  0.25728686  0.20695730    -0.38900
N2851       N  0.72466375  0.22194600  0.27253129    -0.38300
N2852       N  0.58026779  0.19672369  0.24314354    -0.38300
C2853       C  0.75553017  0.35806885  0.13493481    -0.05000
C2854       C  0.76586582  0.37481246  0.16077237    -0.02100
C2855       C  0.75852721  0.39357373  0.16613224     0.02900
C2856       C  0.74662356  0.40019152  0.14209546    -0.05000
C2857       C  0.74300151  0.38804695  0.11264477    -0.02100
C2858       C  0.74725634  0.36665227  0.10915879     0.02900
C2859       C  0.78179361  0.37099251  0.18344943     0.37500
C2860       C  0.73202731  0.39530930  0.08714649     0.37500
C2861       C  0.74273962  0.35331433  0.07957513     0.35900
C2862       C  0.76021999  0.40281041  0.19770563     0.35900
N2863       N  0.73953355  0.34282313  0.05586685    -0.38900
N2864       N  0.76100426  0.40817064  0.22367691    -0.38900
N2865       N  0.72312134  0.40092842  0.06678118    -0.38300
N2866       N  0.79465130  0.36838894  0.20165188    -0.38300
C2867       C  0.60366263  0.25676093  0.13190310    -0.05000
C2868       C  0.62122412  0.27464996  0.11007552    -0.02100
C2869       C  0.64639053  0.27809335  0.10724871     0.02900
C2870       C  0.65315413  0.26205992  0.12380366    -0.05000
C2871       C  0.63357992  0.23992830  0.13870698    -0.02100
C2872       C  0.60893628  0.23765574  0.14367089     0.02900
C2873       C  0.61379856  0.28947681  0.09026161     0.37500
C2874       C  0.63927182  0.22020534  0.14969126     0.37500
C2875       C  0.58901647  0.21563813  0.16024006     0.35900
C2876       C  0.66549185  0.29845625  0.08786803     0.35900
N2877       N  0.57295048  0.19785863  0.17307388    -0.38900
N2878       N  0.68045880  0.31464720  0.07211534    -0.38900
N2879       N  0.64392795  0.20443213  0.15805790    -0.38300
N2880       N  0.60793651  0.30075054  0.07337063    -0.38300
O2881       O  0.69291463  0.26097384  0.61648917    -0.81400
C2882       C  0.76167042  0.29714433  0.71931650     0.97900
O2883       O  0.74134827  0.29864211  0.71556684    -0.70600
O2884       O  0.74133388  0.32189769  0.66587465    -0.74200
Al2885     Al  0.71726857  0.29004319  0.68252000     1.49000
C2886       C  0.74388643  0.32829074  0.63791175     0.93200
O2887       O  0.76602768  0.29019270  0.61764730    -0.80400
O2888       O  0.71587238  0.22295108  0.65543019    -0.71200
Al2889     Al  0.72957074  0.27579893  0.61888820     1.90100
O2890       O  0.76758660  0.26170237  0.64877304    -0.73000
O2891       O  0.71476065  0.24131744  0.71191778    -0.72900
O2892       O  0.76556795  0.28165695  0.70295059    -0.78500
O2893       O  0.69209676  0.26024853  0.70224182    -0.76700
O2894       O  0.72897683  0.27305711  0.66007825    -1.12900
O2895       O  0.69025373  0.28482002  0.65407956    -0.72000
C2896       C  0.68000382  0.26869903  0.63196926     0.98700
C2897       C  0.77759143  0.27863843  0.62765383     0.95100
Al2898     Al  0.74005537  0.25344323  0.67831041     1.55600
O2899       O  0.73558213  0.31093065  0.61704692    -0.76700
C2900       C  0.69507603  0.24387306  0.71729292     0.99200
C2901       C  0.71459232  0.22139944  0.62618744     0.94100
O2902       O  0.72394456  0.24196749  0.61069617    -0.82000
O2903       O  0.74365732  0.43762091  0.62764331    -0.81400
C2904       C  0.70716089  0.47212534  0.72880675     0.97900
O2905       O  0.71186398  0.45357130  0.72884237    -0.70600
O2906       O  0.68680469  0.42225290  0.68328701    -0.74200
Al2907     Al  0.72154823  0.43796691  0.69664553     1.49000
C2908       C  0.67771708  0.41607340  0.65618350     0.93200
O2909       O  0.70706674  0.47502584  0.62625270    -0.80400
O2910       O  0.77796654  0.00607475  0.65994597    -0.73900
Al2911     Al  0.72576890  0.45690665  0.62959871     1.90100
O2912       O  0.73318164  0.00923715  0.65415332    -0.73000
O2913       O  0.76673294  0.99173741  0.71859682    -0.72900
O2914       O  0.71915282  0.99073720  0.71068187    -0.78500
O2915       O  0.75521389  0.45076431  0.71278060    -0.76700
O2916       O  0.73179764  0.46385722  0.67011242    -1.12900
O2917       O  0.72855480  0.41619683  0.67070868    -0.72000
C2918       C  0.74021337  0.41942051  0.64538713     0.98700
C2919       C  0.71492823  0.99837441  0.63446606     0.95100
Al2920     Al  0.74786703  0.99668224  0.68473856     1.55600
O2921       O  0.69251725  0.42604088  0.63335117    -0.76700
C2922       C  0.77038613  0.47303566  0.72367813     0.99200
C2923       C  0.77822907  0.00213893  0.63113292     0.94100
O2924       O  0.75751690  0.48610863  0.61711417    -0.82000
O2925       O  0.56392997  0.30786249  0.63549621    -0.81400
C2926       C  0.52595854  0.22747623  0.72568777     0.97900
O2927       O  0.54748633  0.24803373  0.72449550    -0.70600
O2928       O  0.57609907  0.25511113  0.67502812    -0.74200
Al2929     Al  0.56363363  0.27542655  0.69618577     1.49000
C2930       C  0.58170634  0.25740365  0.64652009     0.93200
O2931       O  0.52162108  0.23483952  0.62051538    -0.80400
O2932       O  0.99892933  0.27500406  0.66257826    -0.73900
Al2933     Al  0.54220363  0.27087705  0.62999702     1.90100
O2934       O  0.99283797  0.22626357  0.65053358    -0.73000
O2935       O  0.01577135  0.27451924  0.71811394    -0.72900
O2936       O  0.01141080  0.22618878  0.70546898    -0.78500
O2937       O  0.55437653  0.29695119  0.71895185    -0.76700
O2938       O  0.53653814  0.26541748  0.67071743    -1.12900
O2939       O  0.58666185  0.30567853  0.67428469    -0.72000
C2940       C  0.58343576  0.31860606  0.65352850     0.98700
C2941       C  0.00205747  0.21921849  0.62854461     0.95100
Al2942     Al  0.00757798  0.25176761  0.68271346     1.55600
O2943       O  0.57129704  0.26606947  0.62837951    -0.76700
C2944       C  0.53265951  0.29340633  0.72810376     0.99200
C2945       C  0.00122273  0.28083577  0.63435551     0.94100
O2946       O  0.51438997  0.27690542  0.62116374    -0.82000
O2947       O  0.73542225  0.13617255  0.95873300    -0.81400
C2948       C  0.69010939  0.06512445  0.56199515     0.97900
O2949       O  0.71034757  0.08698524  0.56181616    -0.70600
O2950       O  0.73901449  0.08872222  0.51528468    -0.74200
Al2951     Al  0.72781201  0.11149672  0.53083488     1.49000
C2952       C  0.74477284  0.08300727  0.98554489     0.93200
O2953       O  0.68606943  0.06417495  0.95431982    -0.80400
O2954       O  0.66566368  0.11044905  0.99121726    -0.73900
Al2955     Al  0.70992186  0.09985640  0.95984575     1.90100
O2956       O  0.65514910  0.05931163  0.98529146    -0.73000
O2957       O  0.67692392  0.10893846  0.55266810    -0.72900
O2958       O  0.67212174  0.06005632  0.54260184    -0.78500
O2959       O  0.71908040  0.13525517  0.54840315    -0.76700
O2960       O  0.70165573  0.09979642  0.50397683    -1.12900
O2961       O  0.75209868  0.13890509  0.50683795    -0.72000
C2962       C  0.75516590  0.14648531  0.97610283     0.98700
C2963       C  0.66331444  0.05044100  0.96412580     0.95100
Al2964     Al  0.66892957  0.08550687  0.51798512     1.55600
O2965       O  0.73608756  0.09004077  0.96312136    -0.76700
C2966       C  0.69721291  0.13026027  0.55873794     0.99200
C2967       C  0.67125784  0.11673490  0.96319448     0.94100
O2968       O  0.68542857  0.10988533  0.94892388    -0.82000
O2969       O  0.85658394  0.08766773  0.96551162    -0.81400
C2970       C  0.93177524  0.12772164  0.55813804     0.97900
O2971       O  0.91093500  0.12809926  0.55606658    -0.70600
O2972       O  0.90482918  0.15065921  0.50881439    -0.74200
Al2973     Al  0.88447228  0.11757130  0.52692149     1.49000
C2974       C  0.90757173  0.15592405  0.98405625     0.93200
O2975       O  0.92995932  0.11874938  0.95383392    -0.80400
O2976       O  0.89134193  0.05235174  0.99390977    -0.73900
Al2977     Al  0.89364935  0.10352205  0.96209908     1.90100
O2978       O  0.93915905  0.09601319  0.98636094    -0.73000
O2979       O  0.88769136  0.06821467  0.54890880    -0.72900
O2980       O  0.93578682  0.11287224  0.54083591    -0.78500
O2981       O  0.86335511  0.08659409  0.54775764    -0.76700
O2982       O  0.89585795  0.10192078  0.50081839    -1.12900
O2983       O  0.85439568  0.11067605  0.50418311    -0.72000
C2984       C  0.84456633  0.09467479  0.98377592     0.98700
C2985       C  0.94509489  0.11097646  0.96341925     0.95100
Al2986     Al  0.91138795  0.08457231  0.51536109     1.55600
O2987       O  0.89911866  0.13829473  0.96341793    -0.76700
C2988       C  0.86757472  0.06891407  0.55688879     0.99200
C2989       C  0.88534997  0.05050368  0.96551449     0.94100
O2990       O  0.88762759  0.07008314  0.95166139    -0.82000
O2991       O  0.91816049  0.27188969  0.95897164    -0.81400
C2992       C  0.86881501  0.29520925  0.55839455     0.97900
O2993       O  0.87570511  0.27824737  0.55844999    -0.70600
O2994       O  0.85508113  0.25008569  0.50869252    -0.74200
Al2995     Al  0.88881731  0.26615717  0.52593228     1.49000
C2996       C  0.84965181  0.24316146  0.97861280     0.93200
O2997       O  0.87637958  0.30430644  0.95277825    -0.80400
O2998       O  0.94359896  0.33933433  0.99567504    -0.73900
Al2999     Al  0.89747845  0.28871178  0.95850258     1.90100
O3000       O  0.89713766  0.33747769  0.98417296    -0.73000
O3001       O  0.92895391  0.31894585  0.55416898    -0.72900
O3002       O  0.88031070  0.31468987  0.54100382    -0.78500
O3003       O  0.92100230  0.27903262  0.54559164    -0.76700
O3004       O  0.89976903  0.29359135  0.50173363    -1.12900
O3005       O  0.89956027  0.24778385  0.49962514    -0.72000
C3006       C  0.91316253  0.25270534  0.97593156     0.98700
C3007       C  0.88130329  0.32658918  0.96193913     0.95100
Al3008     Al  0.91197903  0.32505638  0.51890060     1.55600
O3009       O  0.86595513  0.25570585  0.95787910    -0.76700
C3010       C  0.93321778  0.30038432  0.55980870     0.99200
C3011       C  0.94653217  0.33773127  0.96689293     0.94100
O3012       O  0.92864061  0.32043453  0.95026136    -0.82000
O3013       O  0.90888545  0.46916659  0.80031945    -0.81400
C3014       C  0.85948545  0.39447455  0.88967320     0.97900
O3015       O  0.88164107  0.40846457  0.87861501    -0.70600
O3016       O  0.91669731  0.43442974  0.83822332    -0.74200
Al3017     Al  0.89466316  0.44186286  0.86337476     1.49000
C3018       C  0.91407425  0.42297391  0.81261744     0.93200
O3019       O  0.84637604  0.40410497  0.78203052    -0.80400
O3020       O  0.82454375  0.43165023  0.81612250    -0.73900
Al3021     Al  0.87666678  0.43633124  0.79530113     1.90100
O3022       O  0.82672524  0.38622825  0.82537909    -0.73000
O3023       O  0.84306968  0.44669693  0.87270960    -0.72900
O3024       O  0.84095254  0.39874398  0.88355266    -0.78500
O3025       O  0.87847994  0.45185695  0.89535443    -0.76700
O3026       O  0.86924886  0.43170673  0.83560073    -1.12900
O3027       O  0.91092147  0.47659386  0.85047695    -0.72000
C3028       C  0.91963537  0.48382565  0.82364454     0.98700
C3029       C  0.83009454  0.38427521  0.79688529     0.95100
Al3030     Al  0.83642797  0.41701249  0.84844552     1.55600
O3031       O  0.89490156  0.41748136  0.79524567    -0.76700
C3032       C  0.86067986  0.45761552  0.89297483     0.99200
C3033       C  0.83665079  0.44921579  0.79621707     0.94100
O3034       O  0.85990337  0.45610585  0.78994281    -0.82000
O3035       O  0.52388585  0.42556606  0.78502853    -0.81400
C3036       C  0.59356535  0.46231520  0.88835322     0.97900
O3037       O  0.57253540  0.46233426  0.88450472    -0.70600
O3038       O  0.57128654  0.48576053  0.83558082    -0.74200
Al3039     Al  0.54847118  0.45314735  0.85152628     1.49000
C3040       C  0.57506756  0.49280226  0.80782002     0.93200
O3041       O  0.59715190  0.45515990  0.78390196    -0.80400
O3042       O  0.55341426  0.38854774  0.82213131    -0.73900
Al3043     Al  0.56082450  0.44053630  0.78682431     1.90100
O3044       O  0.60328894  0.43084284  0.81661847    -0.73000
O3045       O  0.54961195  0.40554654  0.87897429    -0.72900
O3046       O  0.59884804  0.44829110  0.87114603    -0.78500
O3047       O  0.52453962  0.42218407  0.87054568    -0.76700
O3048       O  0.56137619  0.43762560  0.82800761    -1.12900
O3049       O  0.52094192  0.44769058  0.82416633    -0.72000
C3050       C  0.51077556  0.43253532  0.80132527     0.98700
C3051       C  0.61175824  0.44742757  0.79511759     0.95100
Al3052     Al  0.57500743  0.41972815  0.84562736     1.55600
O3053       O  0.56721988  0.47592534  0.78632998    -0.76700
C3054       C  0.52934045  0.40682310  0.88532631     0.99200
C3055       C  0.55013793  0.38683350  0.79306517     0.94100
O3056       O  0.55494925  0.40678208  0.77794012    -0.82000
O3057       O  0.58451993  0.10731652  0.79868698    -0.81400
C3058       C  0.53985420  0.13451013  0.89756066     0.97900
O3059       O  0.54891286  0.11934490  0.89917983    -0.70600
O3060       O  0.52386828  0.08767975  0.85264075    -0.74200
Al3061     Al  0.55878693  0.10478619  0.86585053     1.49000
C3062       C  0.51669324  0.07921487  0.82545684     0.93200
O3063       O  0.54125060  0.13802359  0.79430964    -0.80400
O3064       O  0.61169183  0.17642987  0.83004432    -0.73900
Al3065     Al  0.56320771  0.12338679  0.79888611     1.90100
O3066       O  0.56368577  0.17293591  0.82273972    -0.73000
O3067       O  0.60028230  0.15923465  0.88802201    -0.72900
O3068       O  0.54963666  0.15292946  0.87844217    -0.78500
O3069       O  0.59232743  0.11912143  0.88079044    -0.76700
O3070       O  0.56769926  0.13048172  0.83933320    -1.12900
O3071       O  0.56678279  0.08392028  0.83983518    -0.72000
C3072       C  0.58010263  0.08830927  0.81570394     0.98700
C3073       C  0.54649363  0.16068427  0.80209823     0.95100
Al3074     Al  0.58029260  0.16281455  0.85385286     1.55600
O3075       O  0.53156494  0.08994614  0.80266561    -0.76700
C3076       C  0.60601025  0.14143053  0.89229187     0.99200
C3077       C  0.61258968  0.17389758  0.80101614     0.94100
O3078       O  0.59365293  0.15535793  0.78664644    -0.82000
C3079       C  0.58739654  0.02136177  0.80193773    -0.05000
C3080       C  0.60141893  0.03856316  0.82644686    -0.02100
C3081       C  0.59976354  0.06112848  0.83102520     0.02900
C3082       C  0.58885198  0.06948635  0.80763738    -0.05000
C3083       C  0.58140854  0.05569537  0.77906791    -0.02100
C3084       C  0.58003721  0.03115882  0.77646999     0.02900
C3085       C  0.61614704  0.03220644  0.84814890     0.37500
C3086       C  0.57240923  0.06516506  0.75373734     0.37500
C3087       C  0.56963720  0.51540748  0.74829759     0.35900
C3088       C  0.60596445  0.07304545  0.86162264     0.35900
N3089       N  0.56220699  0.50322852  0.72566181    -0.38900
N3090       N  0.61014503  0.08086711  0.88685355    -0.38900
N3091       N  0.56529832  0.07276730  0.73346418    -0.38300
N3092       N  0.62827188  0.02757936  0.86533119    -0.38300
C3093       C  0.94481530  0.00827134  0.82168267    -0.05000
C3094       C  0.94724290  0.03000386  0.80554654    -0.02100
C3095       C  0.97085577  0.05402610  0.80726341     0.02900
C3096       C  0.99253295  0.05567960  0.82307440    -0.05000
C3097       C  0.99059557  0.03327037  0.83686075    -0.02100
C3098       C  0.96675029  0.00996242  0.83695776     0.02900
C3099       C  0.92549389  0.02778771  0.78764877     0.37500
C3100       C  0.01319849  0.03379766  0.85087227     0.37500
C3101       C  0.96524769  0.98772608  0.85286244     0.35900
C3102       C  0.97230410  0.07726994  0.79458981     0.35900
N3103       N  0.96511762  0.47028985  0.86455331    -0.38900
N3104       N  0.97315287  0.09585340  0.78497224    -0.38900
N3105       N  0.53013604  0.03108998  0.85798439    -0.38300
N3106       N  0.90827721  0.02599869  0.77299390    -0.38300
C3107       C  0.93546926  0.41876203  0.80211467    -0.05000
C3108       C  0.94274060  0.40345135  0.81978278    -0.02100
C3109       C  0.96716992  0.40538597  0.81511138     0.02900
C3110       C  0.98515143  0.42407501  0.79467312    -0.05000
C3111       C  0.97682077  0.43709355  0.77453375    -0.02100
C3112       C  0.95175672  0.43409377  0.77787490     0.02900
C3113       C  0.92566794  0.38664601  0.84371135     0.37500
C3114       C  0.49158481  0.45131469  0.75095917     0.37500
C3115       C  0.94366815  0.44851388  0.75810268     0.35900
C3116       C  0.97396253  0.38825373  0.83137657     0.35900
N3117       N  0.93718778  0.45995517  0.74224885    -0.38900
N3118       N  0.97899503  0.37400146  0.84365555    -0.38900
N3119       N  0.50499588  0.46407638  0.73134066    -0.38300
N3120       N  0.91224894  0.37327765  0.86296629    -0.38300
C3121       C  0.85666793  0.37369326  0.91078933    -0.05000
C3122       C  0.86592857  0.38039124  0.94145084    -0.02100
C3123       C  0.87118675  0.36361688  0.95921782     0.02900
C3124       C  0.86964885  0.34091652  0.94558271    -0.05000
C3125       C  0.85903036  0.33366639  0.91505468    -0.02100
C3126       C  0.85207327  0.34974589  0.89820503     0.02900
C3127       C  0.87272314  0.40589157  0.95379586     0.37500
C3128       C  0.85692074  0.31083164  0.89959664     0.37500
C3129       C  0.84219496  0.34271610  0.86670475     0.35900
C3130       C  0.87910570  0.37069895  0.99128386     0.35900
N3131       N  0.83435220  0.33704488  0.84161124    -0.38900
N3132       N  0.88555993  0.37678937  0.01672567    -0.38900
N3133       N  0.85536196  0.29276193  0.88697750    -0.38300
N3134       N  0.87894750  0.42637908  0.96378254    -0.38300
C3135       C  0.97044950  0.35723364  0.95123732    -0.05000
C3136       C  0.98901166  0.35066844  0.94097924    -0.02100
C3137       C  0.50965354  0.36749077  0.92130648     0.02900
C3138       C  0.51072126  0.39059842  0.91038079    -0.05000
C3139       C  0.49315647  0.39801402  0.92341173    -0.02100
C3140       C  0.97274437  0.38113472  0.94270814     0.02900
C3141       C  0.98729975  0.32663359  0.95141061     0.37500
C3142       C  0.49488685  0.42275412  0.91617301     0.37500
C3143       C  0.95466139  0.38872108  0.95511917     0.35900
C3144       C  0.52900987  0.36061868  0.91212686     0.35900
N3145       N  0.94049724  0.39502245  0.96513229    -0.38900
N3146       N  0.54456155  0.35512646  0.90521697    -0.38900
N3147       N  0.49596625  0.44235334  0.91055983    -0.38300
N3148       N  0.98584867  0.30748595  0.95996125    -0.38300
C3149       C  0.51660631  0.12917674  0.91683290    -0.05000
C3150       C  0.51149318  0.14936236  0.92555857    -0.02100
C3151       C  0.98757713  0.14393764  0.93889943     0.02900
C3152       C  0.96971417  0.11798753  0.94684353    -0.05000
C3153       C  0.97575830  0.09824201  0.94001565    -0.02100
C3154       C  0.99954671  0.10429056  0.92605492     0.02900
C3155       C  0.53145963  0.17631255  0.92216365     0.37500
C3156       C  0.95688293  0.07115868  0.94612951     0.37500
C3157       C  0.50289914  0.08162376  0.91926611     0.35900
C3158       C  0.98169680  0.16442066  0.94624780     0.35900
N3159       N  0.50610546  0.06403135  0.91551542    -0.38900
N3160       N  0.97689252  0.18069247  0.95204972    -0.38900
N3161       N  0.94196746  0.04957054  0.95084580    -0.38300
N3162       N  0.54753944  0.19788490  0.92034336    -0.38300
C3163       C  0.86295205  0.47999247  0.91130911    -0.05000
C3164       C  0.85716904  0.47812586  0.94314568    -0.02100
C3165       C  0.86358151  0.00085695  0.96106523     0.02900
C3166       C  0.87652205  0.02575039  0.94706694    -0.05000
C3167       C  0.88103125  0.02699181  0.91451518    -0.02100
C3168       C  0.87355228  0.00416345  0.89696937     0.02900
C3169       C  0.84315506  0.45265786  0.95707637     0.37500
C3170       C  0.89450266  0.05172753  0.89859976     0.37500
C3171       C  0.87721694  0.00571903  0.86364874     0.35900
C3172       C  0.85663194  0.99838679  0.99352033     0.35900
N3173       N  0.87975610  0.00694837  0.83705223    -0.38900
N3174       N  0.85168422  0.49609687  0.01953166    -0.38900
N3175       N  0.90518969  0.07131340  0.88570342    -0.38300
N3176       N  0.83153728  0.43232680  0.96812454    -0.38300
C3177       C  0.91632394  0.18362452  0.97555867    -0.05000
C3178       C  0.90594983  0.18950537  0.94902831    -0.02100
C3179       C  0.90818773  0.21432273  0.94619074     0.02900
C3180       C  0.92180076  0.23371731  0.96886212    -0.05000
C3181       C  0.93696812  0.22969685  0.48814446    -0.02100
C3182       C  0.93358185  0.20449307  0.49068976     0.02900
C3183       C  0.89156102  0.16986958  0.92546198     0.37500
C3184       C  0.95458018  0.25039320  0.50897639     0.37500
C3185       C  0.94877471  0.19974108  0.51340390     0.35900
C3186       C  0.89390802  0.21887695  0.92200480     0.35900
N3187       N  0.96103374  0.19614685  0.53152468    -0.38900
N3188       N  0.88231340  0.22232523  0.90281166    -0.38900
N3189       N  0.96877522  0.26690374  0.52548444    -0.38300
N3190       N  0.88032785  0.15433728  0.90643361    -0.38300
C3191       C  0.62897728  0.14542897  0.91033597    -0.05000
C3192       C  0.62941060  0.14751087  0.94289105    -0.02100
C3193       C  0.64526114  0.14068103  0.96062972     0.02900
C3194       C  0.66024355  0.13107126  0.94568696    -0.05000
C3195       C  0.66300494  0.13359873  0.91291309    -0.02100
C3196       C  0.64674899  0.13972186  0.89545931     0.02900
C3197       C  0.61160899  0.15408205  0.95815371     0.37500
C3198       C  0.68144788  0.12867973  0.89619796     0.37500
C3199       C  0.64562973  0.13625977  0.86197076     0.35900
C3200       C  0.64597702  0.14361155  0.99405998     0.35900
N3201       N  0.64428872  0.13257990  0.83546534    -0.38900
N3202       N  0.63072407  0.13338188  0.52283264    -0.38900
N3203       N  0.69603059  0.12478098  0.88265052    -0.38300
N3204       N  0.59726171  0.15916105  0.97026280    -0.38300
C3205       C  0.61202545  0.48010978  0.91273767    -0.05000
C3206       C  0.63905792  0.99148803  0.90928657    -0.02100
C3207       C  0.65594412  0.01279317  0.92845613     0.02900
C3208       C  0.64582065  0.02412005  0.94953059    -0.05000
C3209       C  0.61877472  0.51053805  0.95547583    -0.02100
C3210       C  0.60222890  0.48804861  0.93793904     0.02900
C3211       C  0.65001141  0.98266607  0.88521343     0.37500
C3212       C  0.60721306  0.51942622  0.97875019     0.37500
C3213       C  0.57489880  0.47295290  0.94607928     0.35900
C3214       C  0.68375946  0.02261188  0.92645866     0.35900
N3215       N  0.55317656  0.46082503  0.95260112    -0.38900
N3216       N  0.70588295  0.03021711  0.92505358    -0.38900
N3217       N  0.59937641  0.51910966  0.50630507    -0.38300
N3218       N  0.65902450  0.97588595  0.86604246    -0.38300
C3219       C  0.77994863  0.16995169  0.96767535    -0.05000
C3220       C  0.78094339  0.19218603  0.95440931    -0.02100
C3221       C  0.80234866  0.22000196  0.46396335     0.02900
C3222       C  0.82643133  0.21813952  0.97097029    -0.05000
C3223       C  0.82627419  0.19528207  0.97995207    -0.02100
C3224       C  0.80332980  0.17135331  0.97792641     0.02900
C3225       C  0.75476136  0.19641077  0.45384246     0.37500
C3226       C  0.84927878  0.19598569  0.99293880     0.37500
C3227       C  0.80392318  0.14838195  0.98825659     0.35900
C3228       C  0.80358775  0.24444037  0.45664942     0.35900
N3229       N  0.80529259  0.13086070  0.99754555    -0.38900
N3230       N  0.80464990  0.26400988  0.45093997    -0.38900
N3231       N  0.86657713  0.19486720  0.00377639    -0.38300
N3232       N  0.73635618  0.19676222  0.44549952    -0.38300
C3233       C  0.81601019  0.08402644  0.98127469    -0.05000
C3234       C  0.80413348  0.08368400  0.95268940    -0.02100
C3235       C  0.77849848  0.07975073  0.95230168     0.02900
C3236       C  0.76421950  0.07425882  0.98030164    -0.05000
C3237       C  0.77186749  0.06832219  0.50595534    -0.02100
C3238       C  0.79810599  0.07514725  0.50748506     0.02900
C3239       C  0.81910960  0.09034251  0.92436250     0.37500
C3240       C  0.75473190  0.05455893  0.53153082     0.37500
C3241       C  0.80885233  0.07654887  0.53805618     0.35900
C3242       C  0.76771005  0.08282848  0.92350866     0.35900
N3243       N  0.81561161  0.07819485  0.56355101    -0.38900
N3244       N  0.75921278  0.08534553  0.90046626    -0.38900
N3245       N  0.74129336  0.04343856  0.55196618    -0.38300
N3246       N  0.83101507  0.09559742  0.90173124    -0.38300
C3247       C  0.98524161  0.29125330  0.62002462    -0.05000
C3248       C  0.95891937  0.28129631  0.62858431    -0.02100
C3249       C  0.94246783  0.28703648  0.61066073     0.02900
C3250       C  0.95196229  0.30239535  0.58391022    -0.05000
C3251       C  0.97867288  0.31459579  0.57724322    -0.02100
C3252       C  0.99537014  0.30940156  0.59553200     0.02900
C3253       C  0.94808505  0.26371923  0.65447433     0.37500
C3254       C  0.98860483  0.33116288  0.55036683     0.37500
C3255       C  0.52156264  0.32262618  0.59288034     0.35900
C3256       C  0.91532928  0.27621412  0.61898980     0.35900
N3257       N  0.54375001  0.33398191  0.58869292    -0.38900
N3258       N  0.89374684  0.26768463  0.62579699    -0.38900
N3259       N  0.49682954  0.34320577  0.52998115    -0.38300
N3260       N  0.93943876  0.24970486  0.67514500    -0.38300
C3261       C  0.95161099  0.14648816  0.58033724    -0.05000
C3262       C  0.94331898  0.15305570  0.60800875    -0.02100
C3263       C  0.96044253  0.17539996  0.62523658     0.02900
C3264       C  0.98589787  0.19257325  0.61410546    -0.05000
C3265       C  0.99500800  0.18420618  0.58834775    -0.02100
C3266       C  0.97796998  0.16118551  0.57176982     0.02900
C3267       C  0.91648371  0.13773739  0.61813956     0.37500
C3268       C  0.52073712  0.19825286  0.58281331     0.37500
C3269       C  0.98715711  0.15396375  0.54432301     0.35900
C3270       C  0.95112130  0.18038014  0.65421142     0.35900
N3271       N  0.49497059  0.14742680  0.52661916    -0.38900
N3272       N  0.94343098  0.18403435  0.67726990    -0.38900
N3273       N  0.54245955  0.20973633  0.57607134    -0.38300
N3274       N  0.89506888  0.12624532  0.62608714    -0.38300
C3275       C  0.54167448  0.36168118  0.77568153    -0.05000
C3276       C  0.54685930  0.36188630  0.74341868    -0.02100
C3277       C  0.54059040  0.33860002  0.72763794     0.02900
C3278       C  0.53183420  0.31532230  0.74400650    -0.05000
C3279       C  0.52375323  0.31413845  0.77487388    -0.02100
C3280       C  0.52834266  0.33720010  0.79061433     0.02900
C3281       C  0.55956419  0.38587204  0.72593651     0.37500
C3282       C  0.50963555  0.28917395  0.78990679     0.37500
C3283       C  0.51822088  0.33536319  0.82154817     0.35900
C3284       C  0.54232532  0.33840676  0.69408515     0.35900
N3285       N  0.50965758  0.33365809  0.84603734    -0.38900
N3286       N  0.54322777  0.33848978  0.66732029    -0.38900
N3287       N  0.49775267  0.26931418  0.80194430    -0.38300
N3288       N  0.56971093  0.40479667  0.71170219    -0.38300
C3289       C  0.52364722  0.20708502  0.74741007    -0.05000
C3290       C  0.51795574  0.18235823  0.73622679    -0.02100
C3291       C  0.52343217  0.16598440  0.75476489     0.02900
C3292       C  0.53403147  0.17399938  0.78523091    -0.05000
C3293       C  0.53613023  0.19730457  0.79753135    -0.02100
C3294       C  0.53177880  0.21400620  0.77846248     0.02900
C3295       C  0.50872487  0.17477005  0.70459593     0.37500
C3296       C  0.54401370  0.20512738  0.82943104     0.37500
C3297       C  0.53738718  0.23928869  0.79041116     0.35900
C3298       C  0.52007125  0.14203732  0.74100910     0.35900
N3299       N  0.54247489  0.25958545  0.79999625    -0.38900
N3300       N  0.51746269  0.12305876  0.72976972    -0.38900
N3301       N  0.55053783  0.21187817  0.85472174    -0.38300
N3302       N  0.00028673  0.16864779  0.68100838    -0.38300
C3303       C  0.68950452  0.04575816  0.58460123    -0.05000
C3304       C  0.67949731  0.01939623  0.57606700    -0.02100
C3305       C  0.68635839  0.00334462  0.59326430     0.02900
C3306       C  0.70357206  0.01354382  0.61933102    -0.05000
C3307       C  0.71101512  0.03919550  0.62967704    -0.02100
C3308       C  0.70380089  0.05489728  0.61270717     0.02900
C3309       C  0.66357823  0.00908417  0.54831279     0.37500
C3310       C  0.72675057  0.05029416  0.65749026     0.37500
C3311       C  0.71247414  0.08123343  0.62378058     0.35900
C3312       C  0.67765909  0.47690679  0.58085553     0.35900
N3313       N  0.72007424  0.10229352  0.63270462    -0.38900
N3314       N  0.67044392  0.45599214  0.57161548    -0.38900
N3315       N  0.73913224  0.05929913  0.67969520    -0.38300
N3316       N  0.65266196  0.50115003  0.52391497    -0.38300
C3317       C  0.84732605  0.04800292  0.57572505    -0.05000
C3318       C  0.82378291  0.03013851  0.56128512    -0.02100
C3319       C  0.80172309  0.01429449  0.57917994     0.02900
C3320       C  0.80269712  0.01683578  0.61223497    -0.05000
C3321       C  0.82728129  0.03372199  0.62648214    -0.02100
C3322       C  0.84955457  0.04846360  0.60813493     0.02900
C3323       C  0.82201861  0.02894266  0.52762053     0.37500
C3324       C  0.83005636  0.03687277  0.65987611     0.37500
C3325       C  0.87491287  0.06409524  0.62250735     0.35900
C3326       C  0.77835406  0.49624368  0.56225778     0.35900
N3327       N  0.89524694  0.07603067  0.63392676    -0.38900
N3328       N  0.75970527  0.48177247  0.54880573    -0.38900
N3329       N  0.83251930  0.03974239  0.68648048    -0.38300
N3330       N  0.82058081  0.02816701  0.50084974    -0.38300
C3331       C  0.68617930  0.47062130  0.74985551    -0.05000
C3332       C  0.67898994  0.45492341  0.77673276    -0.02100
C3333       C  0.65504932  0.44743712  0.79171385     0.02900
C3334       C  0.63870876  0.45732681  0.78184699    -0.05000
C3335       C  0.64799887  0.47607332  0.75778865    -0.02100
C3336       C  0.67053331  0.48140544  0.74095761     0.02900
C3337       C  0.69563431  0.44535716  0.78857559     0.37500
C3338       C  0.63543627  0.99134203  0.75148703     0.37500
C3339       C  0.67758381  0.99874265  0.71543211     0.35900
C3340       C  0.64716925  0.42861658  0.81646952     0.35900
N3341       N  0.68144948  0.01135788  0.69368656    -0.38900
N3342       N  0.64097432  0.41345953  0.83602108    -0.38900
N3343       N  0.62509474  0.00296036  0.74530037    -0.38300
N3344       N  0.70863347  0.43746705  0.79812288    -0.38300
C3345       C  0.79271157  0.47613598  0.74275053    -0.05000
C3346       C  0.81190012  0.47233597  0.72835930    -0.02100
C3347       C  0.82661410  0.46408553  0.74586319     0.02900
C3348       C  0.82323622  0.46091523  0.77841001    -0.05000
C3349       C  0.80668371  0.46853823  0.79321396    -0.02100
C3350       C  0.79151521  0.47618780  0.77535008     0.02900
C3351       C  0.81492643  0.47485343  0.69496773     0.37500
C3352       C  0.80518651  0.46850117  0.82671261     0.37500
C3353       C  0.77400555  0.98312065  0.79098887     0.35900
C3354       C  0.84313675  0.45631284  0.72960363     0.35900
N3355       N  0.76071278  0.98972084  0.80286008    -0.38900
N3356       N  0.85602519  0.44987439  0.71641949    -0.38900
N3357       N  0.80281762  0.96684374  0.85399349    -0.38300
N3358       N  0.81722385  0.47671883  0.66834564    -0.38300
C3359       C  0.60336823  0.34659950  0.65149634    -0.05000
C3360       C  0.61241811  0.36179742  0.67899261    -0.02100
C3361       C  0.63366260  0.38705681  0.67812423     0.02900
C3362       C  0.64984544  0.39543364  0.65193896    -0.05000
C3363       C  0.63981762  0.38151184  0.62363499    -0.02100
C3364       C  0.61584962  0.35773633  0.62329198     0.02900
C3365       C  0.60179119  0.35155042  0.70919214     0.37500
C3366       C  0.65393114  0.39110747  0.59495208     0.37500
C3367       C  0.60487044  0.34439945  0.59416014     0.35900
C3368       C  0.63843557  0.40430342  0.70441203     0.35900
N3369       N  0.59604193  0.33437416  0.57060286    -0.38900
N3370       N  0.64138928  0.41768607  0.72547735    -0.38900
N3371       N  0.66498767  0.39863316  0.57189667    -0.38300
N3372       N  0.59528754  0.34490944  0.73431383    -0.38300
C3373       C  0.84642344  0.29127813  0.57824369    -0.05000
C3374       C  0.82586546  0.26568033  0.58442880    -0.02100
C3375       C  0.80410415  0.26180169  0.60172426     0.02900
C3376       C  0.80197421  0.28326436  0.61237153    -0.05000
C3377       C  0.82228268  0.30876212  0.60635160    -0.02100
C3378       C  0.84476499  0.31274364  0.59032602     0.02900
C3379       C  0.82608850  0.24280061  0.57235064     0.37500
C3380       C  0.82015068  0.33099855  0.61681459     0.37500
C3381       C  0.86666104  0.33890119  0.58777029     0.35900
C3382       C  0.78313190  0.23541988  0.60696983     0.35900
N3383       N  0.88428999  0.35974373  0.58624482    -0.38900
N3384       N  0.76660452  0.21432826  0.61107011    -0.38900
N3385       N  0.81832201  0.34868406  0.62500590    -0.38300
N3386       N  0.82557773  0.22409703  0.56326994    -0.38300
C3387       C  0.70392090  0.19586582  0.60904412    -0.05000
C3388       C  0.70366706  0.19542306  0.57595239    -0.02100
C3389       C  0.70026730  0.17329570  0.55974560     0.02900
C3390       C  0.69539163  0.15089052  0.57583307    -0.05000
C3391       C  0.69056480  0.14934482  0.60782679    -0.02100
C3392       C  0.69554128  0.17196701  0.62471802     0.02900
C3393       C  0.70691634  0.21741218  0.55787344     0.37500
C3394       C  0.68010988  0.12447588  0.62309666     0.37500
C3395       C  0.69217273  0.17029658  0.65804326     0.35900
C3396       C  0.70144995  0.17335667  0.52613265     0.35900
N3397       N  0.68944439  0.16877992  0.68462307    -0.38900
N3398       N  0.70213586  0.17321558  0.49938324    -0.38900
N3399       N  0.67102257  0.10450026  0.63517170    -0.38300
N3400       N  0.70945832  0.23476151  0.54313277    -0.38300
C3401       C  0.78085474  0.31472338  0.74298210    -0.05000
C3402       C  0.77164403  0.31967496  0.77093427    -0.02100
C3403       C  0.78807927  0.34136832  0.78966888     0.02900
C3404       C  0.81402924  0.35865387  0.78044157    -0.05000
C3405       C  0.82417159  0.35137965  0.75488975    -0.02100
C3406       C  0.80764399  0.32945780  0.73626242     0.02900
C3407       C  0.74489174  0.30252089  0.78019902     0.37500
C3408       C  0.85171171  0.36603352  0.74797056     0.37500
C3409       C  0.81806278  0.32294199  0.70942377     0.35900
C3410       C  0.77765161  0.34593576  0.81792034     0.35900
N3411       N  0.82650419  0.31765883  0.68820403    -0.38900
N3412       N  0.76919179  0.34918520  0.84058064    -0.38900
N3413       N  0.87368536  0.37744154  0.74239567    -0.38300
N3414       N  0.72352894  0.28881565  0.78728302    -0.38300
C3415       C  0.63487330  0.19393700  0.78261269    -0.05000
C3416       C  0.63020413  0.20864258  0.76063288    -0.02100
C3417       C  0.65053266  0.22695393  0.74209577     0.02900
C3418       C  0.67497164  0.22776778  0.74123462    -0.05000
C3419       C  0.68011901  0.21425792  0.76474498    -0.02100
C3420       C  0.66071837  0.19920287  0.78671825     0.02900
C3421       C  0.60493024  0.20674772  0.75854965     0.37500
C3422       C  0.70579341  0.21712475  0.76800892     0.37500
C3423       C  0.66845364  0.19231191  0.81525057     0.35900
C3424       C  0.64638701  0.24615852  0.72620625     0.35900
N3425       N  0.67618625  0.18900390  0.83838859    -0.38900
N3426       N  0.64311965  0.26180621  0.71443274    -0.38900
N3427       N  0.72625171  0.21933988  0.77071559    -0.38300
N3428       N  0.58531673  0.20635208  0.75604668    -0.38300
C3429       C  0.75419617  0.35628056  0.63107734    -0.05000
C3430       C  0.76756738  0.37432394  0.65505250    -0.02100
C3431       C  0.76336424  0.39535627  0.65965719     0.02900
C3432       C  0.74951651  0.40107293  0.63725016    -0.05000
C3433       C  0.74204281  0.38666011  0.60907680    -0.02100
C3434       C  0.74450229  0.36414152  0.60597897     0.02900
C3435       C  0.78389141  0.37000541  0.67661238     0.37500
C3436       C  0.72938843  0.39316373  0.58477789     0.37500
C3437       C  0.73713416  0.34917304  0.57736471     0.35900
C3438       C  0.77044101  0.40840087  0.68950121     0.35900
N3439       N  0.73198830  0.33748484  0.55430404    -0.38900
N3440       N  0.77550125  0.41681087  0.71440902    -0.38900
N3441       N  0.71922365  0.39817887  0.56527494    -0.38300
N3442       N  0.79702327  0.36687519  0.69387151    -0.38300
C3443       C  0.60273735  0.25285618  0.63447699    -0.05000
C3444       C  0.61863901  0.26800128  0.60963887    -0.02100
C3445       C  0.64391009  0.27178065  0.60650461     0.02900
C3446       C  0.65215196  0.25834498  0.62584382    -0.05000
C3447       C  0.63391009  0.23817179  0.64449424    -0.02100
C3448       C  0.60935057  0.23587943  0.64962207     0.02900
C3449       C  0.60941814  0.27967865  0.58718835     0.37500
C3450       C  0.64081099  0.22032107  0.65872035     0.37500
C3451       C  0.59084386  0.21594630  0.66988390     0.35900
C3452       C  0.66158987  0.29001622  0.58409654     0.35900
N3453       N  0.57583608  0.19986521  0.68572839    -0.38900
N3454       N  0.67527646  0.30452286  0.56587557    -0.38900
N3455       N  0.64635209  0.20592477  0.66961446    -0.38300
N3456       N  0.60194634  0.28835052  0.56855199    -0.38300
O3457       O  0.69348290  0.76388292  0.11535789    -0.81400
C3458       C  0.76002837  0.79615081  0.22036963     0.97900
O3459       O  0.73974618  0.79764605  0.21660705    -0.70600
O3460       O  0.74213896  0.82273926  0.16761202    -0.74200
Al3461     Al  0.71697582  0.79061800  0.18247093     1.49000
C3462       C  0.74538552  0.83013999  0.14001290     0.93200
O3463       O  0.76647583  0.79142150  0.11738692    -0.80400
O3464       O  0.71692606  0.72376394  0.15256367    -0.71200
Al3465     Al  0.73004193  0.77791209  0.11841357     1.90100
O3466       O  0.76791960  0.76316047  0.14897283    -0.73000
O3467       O  0.71283993  0.74043323  0.20946263    -0.72900
O3468       O  0.76416708  0.78113945  0.20347993    -0.78500
O3469       O  0.69092418  0.76038914  0.20038484    -0.76700
O3470       O  0.72879097  0.77389744  0.15946258    -1.12900
O3471       O  0.69093640  0.78723595  0.15347157    -0.72000
C3472       C  0.68069179  0.77170979  0.13085225     0.98700
C3473       C  0.77800771  0.77992677  0.12775649     0.95100
Al3474     Al  0.73951804  0.75375270  0.17724531     1.55600
O3475       O  0.73717056  0.81349122  0.11830434    -0.76700
C3476       C  0.69325230  0.74327075  0.21466858     0.99200
C3477       C  0.71660242  0.72349183  0.12325848     0.94100
O3478       O  0.72355723  0.74425187  0.10888612    -0.82000
O3479       O  0.74206078  0.93729397  0.13090188    -0.81400
C3480       C  0.70710789  0.97428358  0.23038829     0.97900
O3481       O  0.71085651  0.95516740  0.23048916    -0.70600
O3482       O  0.68418090  0.92541172  0.18447616    -0.74200
Al3483     Al  0.71857588  0.93841351  0.19803875     1.49000
C3484       C  0.67557036  0.91874468  0.15725562     0.93200
O3485       O  0.70811980  0.97699869  0.12689079    -0.80400
O3486       O  0.77830377  0.50629514  0.16113254    -0.73900
Al3487     Al  0.72523694  0.95753067  0.13126879     1.90100
O3488       O  0.73400865  0.51085881  0.15519806    -0.73000
O3489       O  0.76608789  0.49066746  0.21943688    -0.72900
O3490       O  0.71955729  0.49248815  0.21178987    -0.78500
O3491       O  0.75161872  0.94889208  0.21392808    -0.76700
O3492       O  0.73076797  0.96457388  0.17162531    -1.12900
O3493       O  0.72330009  0.91487034  0.17226026    -0.72000
C3494       C  0.73687477  0.91850342  0.14846714     0.98700
C3495       C  0.71621955  0.50029459  0.13479698     0.95100
Al3496     Al  0.74804364  0.49737893  0.18587297     1.55600
O3497       O  0.69107439  0.92746124  0.13475163    -0.76700
C3498       C  0.76803478  0.97077359  0.22467509     0.99200
C3499       C  0.77853164  0.50187649  0.13243500     0.94100
O3500       O  0.75764754  0.98557495  0.11897901    -0.82000
O3501       O  0.56264765  0.81025598  0.13523016    -0.81400
C3502       C  0.52573122  0.72917886  0.22442823     0.97900
O3503       O  0.54737558  0.74960573  0.22297754    -0.70600
O3504       O  0.57602298  0.75736556  0.17299473    -0.74200
Al3505     Al  0.56331852  0.77733142  0.19494624     1.49000
C3506       C  0.58185076  0.76049331  0.14453624     0.93200
O3507       O  0.52126479  0.73718210  0.11968961    -0.80400
O3508       O  0.99387981  0.77438541  0.16528957    -0.73900
Al3509     Al  0.54140453  0.77324631  0.12921267     1.90100
O3510       O  0.98932845  0.72616131  0.15273789    -0.73000
O3511       O  0.01099992  0.77420791  0.22066471    -0.72900
O3512       O  0.00682243  0.72578999  0.20792736    -0.78500
O3513       O  0.55401438  0.79850477  0.21841696    -0.76700
O3514       O  0.53600381  0.76741748  0.16986009    -1.12900
O3515       O  0.58602830  0.80799089  0.17322834    -0.72000
C3516       C  0.58223388  0.82108211  0.15316106     0.98700
C3517       C  0.99902990  0.72016052  0.13025035     0.95100
Al3518     Al  0.00315092  0.75146288  0.18526906     1.55600
O3519       O  0.57104933  0.76909261  0.12683843    -0.76700
C3520       C  0.53234656  0.79492816  0.22781990     0.99200
C3521       C  0.99713735  0.78148334  0.13751369     0.94100
O3522       O  0.51311016  0.77886686  0.12086352    -0.82000
O3523       O  0.73220711  0.63853362  0.46392291    -0.81400
C3524       C  0.69197434  0.56656921  0.06060626     0.97900
O3525       O  0.71247945  0.58819169  0.06005660    -0.70600
O3526       O  0.73958947  0.58646310  0.01342470    -0.74200
Al3527     Al  0.73023447  0.61095277  0.02746849     1.49000
C3528       C  0.74381943  0.58596019  0.48743753     0.93200
O3529       O  0.68536243  0.56578399  0.45671049    -0.80400
O3530       O  0.66163065  0.60920420  0.49491432    -0.73900
Al3531     Al  0.70781638  0.60165724  0.46342041     1.90100
O3532       O  0.65322916  0.55908358  0.48651751    -0.73000
O3533       O  0.68113995  0.61176584  0.04920027    -0.72900
O3534       O  0.67398060  0.56153581  0.04125861    -0.78500
O3535       O  0.72332649  0.63643311  0.04333720    -0.76700
O3536       O  0.70388218  0.59932292  0.00099953    -1.12900
O3537       O  0.75477467  0.63661530  0.00207312    -0.72000
C3538       C  0.75165646  0.64915771  0.48183706     0.98700
C3539       C  0.66237022  0.55127075  0.46531740     0.95100
Al3540     Al  0.67163911  0.58685512  0.01562915     1.55600
O3541       O  0.73491145  0.59338629  0.46575929    -0.76700
C3542       C  0.70201871  0.63294080  0.05391540     0.99200
C3543       C  0.66713010  0.61580912  0.46690627     0.94100
O3544       O  0.68219632  0.61010205  0.45280189    -0.82000
O3545       O  0.85416962  0.58797025  0.46387516    -0.81400
C3546       C  0.93275450  0.62648101  0.06064633     0.97900
O3547       O  0.91108759  0.62529356  0.05957566    -0.70600
O3548       O  0.90694555  0.64983533  0.01213224    -0.74200
Al3549     Al  0.88572954  0.61619494  0.02889249     1.49000
C3550       C  0.90535935  0.65633863  0.48006913     0.93200
O3551       O  0.92734744  0.61908802  0.45079827    -0.80400
O3552       O  0.88987227  0.55338600  0.49145374    -0.73900
Al3553     Al  0.89112257  0.60380209  0.45961841     1.90100
O3554       O  0.93729074  0.59729368  0.48403167    -0.73000
O3555       O  0.88931982  0.56762087  0.05145471    -0.72900
O3556       O  0.93763276  0.61272466  0.04241298    -0.78500
O3557       O  0.86370353  0.58444052  0.04773196    -0.76700
O3558       O  0.89764179  0.60112178  0.00277504    -1.12900
O3559       O  0.85655209  0.61077981  0.00509358    -0.72000
C3560       C  0.84224982  0.59466300  0.48272404     0.98700
C3561       C  0.94283356  0.61192036  0.46085346     0.95100
Al3562     Al  0.91310171  0.58380403  0.01739562     1.55600
O3563       O  0.89638287  0.63841879  0.45989773    -0.76700
C3564       C  0.86834126  0.56729840  0.05789474     0.99200
C3565       C  0.88330145  0.55102858  0.46329317     0.94100
O3566       O  0.88509434  0.57031944  0.44929708    -0.82000
O3567       O  0.91789487  0.77243584  0.45892270    -0.81400
C3568       C  0.86799984  0.79587424  0.05636569     0.97900
O3569       O  0.87480070  0.77887894  0.05638981    -0.70600
O3570       O  0.85456434  0.74964458  0.00704729    -0.74200
Al3571     Al  0.88819753  0.76653702  0.02474296     1.49000
C3572       C  0.84910997  0.74379003  0.48000781     0.93200
O3573       O  0.87608459  0.80449380  0.45585290    -0.80400
O3574       O  0.94411585  0.83847150  0.49731670    -0.73900
Al3575     Al  0.89717285  0.78893212  0.45986137     1.90100
O3576       O  0.89788532  0.83759306  0.48699203    -0.73000
O3577       O  0.92767645  0.81984941  0.05244782    -0.72900
O3578       O  0.87911667  0.81502054  0.03840422    -0.78500
O3579       O  0.92015767  0.77998461  0.04489029    -0.76700
O3580       O  0.89910562  0.79358558  0.99990203    -1.12900
O3581       O  0.89932080  0.74803639  0.99965818    -0.72000
C3582       C  0.91315338  0.75293954  0.47503734     0.98700
C3583       C  0.88147716  0.82682756  0.46522758     0.95100
Al3584     Al  0.91093230  0.82527721  0.01646598     1.55600
O3585       O  0.86539699  0.75590291  0.45905782    -0.76700
C3586       C  0.93171279  0.80133281  0.05918676     0.99200
C3587       C  0.94664445  0.83729246  0.46838926     0.94100
O3588       O  0.92828484  0.82071172  0.45163665    -0.82000
O3589       O  0.90653004  0.96742169  0.30173144    -0.81400
C3590       C  0.85858173  0.89398771  0.39319693     0.97900
O3591       O  0.88061945  0.90822379  0.38197903    -0.70600
O3592       O  0.91470031  0.93324986  0.34031593    -0.74200
Al3593     Al  0.89304070  0.94117683  0.36545296     1.49000
C3594       C  0.91158806  0.92127228  0.31496255     0.93200
O3595       O  0.84396993  0.90231577  0.28470786    -0.80400
O3596       O  0.82193419  0.92846179  0.31832235    -0.73900
Al3597     Al  0.87425689  0.93449472  0.29759966     1.90100
O3598       O  0.82535699  0.88385202  0.32827649    -0.73000
O3599       O  0.84059537  0.94464870  0.37477822    -0.72900
O3600       O  0.83964230  0.89744513  0.38653389    -0.78500
O3601       O  0.87689957  0.95161189  0.39691271    -0.76700
O3602       O  0.86727107  0.93016005  0.33799758    -1.12900
O3603       O  0.90910903  0.97578058  0.35159363    -0.72000
C3604       C  0.91754589  0.98257248  0.32457229     0.98700
C3605       C  0.82821854  0.88224323  0.29953037     0.95100
Al3606     Al  0.83448709  0.91484290  0.35103472     1.55600
O3607       O  0.89234067  0.91566487  0.29772534    -0.76700
C3608       C  0.85854631  0.95657030  0.39446061     0.99200
C3609       C  0.83367975  0.94599327  0.29826546     0.94100
O3610       O  0.85722971  0.95393710  0.29241205    -0.82000
O3611       O  0.52328023  0.92516889  0.28608211    -0.81400
C3612       C  0.59353992  0.96377788  0.38810499     0.97900
O3613       O  0.57235636  0.96369839  0.38495884    -0.70600
O3614       O  0.56945690  0.98646035  0.33588962    -0.74200
Al3615     Al  0.54751850  0.95364064  0.35244512     1.49000
C3616       C  0.57272568  0.99323345  0.30800170     0.93200
O3617       O  0.59675924  0.95745375  0.28542615    -0.80400
O3618       O  0.55259112  0.88941623  0.32299281    -0.73900
Al3619     Al  0.56021037  0.94142960  0.28777707     1.90100
O3620       O  0.60256473  0.93175872  0.31621640    -0.73000
O3621       O  0.55004160  0.90675810  0.38006158    -0.72900
O3622       O  0.59863886  0.94960566  0.37089051    -0.78500
O3623       O  0.52434121  0.92270296  0.37204512    -0.76700
O3624       O  0.56073159  0.93849375  0.32886346    -1.12900
O3625       O  0.51934975  0.94672502  0.32533185    -0.72000
C3626       C  0.50960807  0.93128897  0.30258526     0.98700
C3627       C  0.61121828  0.94912600  0.29555160     0.95100
Al3628     Al  0.57469022  0.92079498  0.34606537     1.55600
O3629       O  0.56498074  0.97614801  0.28683395    -0.76700
C3630       C  0.52961805  0.90762461  0.38664464     0.99200
C3631       C  0.55002310  0.88798612  0.29382426     0.94100
O3632       O  0.55570160  0.90820988  0.27879199    -0.82000
O3633       O  0.58194240  0.60777998  0.29600369    -0.81400
C3634       C  0.53899079  0.63533036  0.39641902     0.97900
O3635       O  0.54786559  0.61998535  0.39764348    -0.70600
O3636       O  0.52214638  0.58820055  0.35140983    -0.74200
Al3637     Al  0.55734391  0.60537285  0.36398828     1.49000
C3638       C  0.51461891  0.57954344  0.32436074     0.93200
O3639       O  0.53881260  0.63877109  0.29387003    -0.80400
O3640       O  0.61006841  0.67672493  0.32779920    -0.73900
Al3641     Al  0.56070445  0.62395305  0.29727221     1.90100
O3642       O  0.56234507  0.67392665  0.32153338    -0.73000
O3643       O  0.59897012  0.65957602  0.38629152    -0.72900
O3644       O  0.54866468  0.65380127  0.37734960    -0.78500
O3645       O  0.59115863  0.61960396  0.37843808    -0.76700
O3646       O  0.56594802  0.63106437  0.33765220    -1.12900
O3647       O  0.56503349  0.58460928  0.33753405    -0.72000
C3648       C  0.57790659  0.58890551  0.31305684     0.98700
C3649       C  0.54470072  0.66168606  0.30136261     0.95100
Al3650     Al  0.57898457  0.66345272  0.35226688     1.55600
O3651       O  0.52910673  0.59045504  0.30133850    -0.76700
C3652       C  0.60441790  0.64160566  0.39084668     0.99200
C3653       C  0.61028914  0.67419045  0.29864625     0.94100
O3654       O  0.59093037  0.65578162  0.28471039    -0.82000
C3655       C  0.58436483  0.52149333  0.30084691    -0.05000
C3656       C  0.59905035  0.53930409  0.32452502    -0.02100
C3657       C  0.59836790  0.56248203  0.32797635     0.02900
C3658       C  0.58659156  0.57008244  0.30484442    -0.05000
C3659       C  0.57789255  0.55525949  0.27707756    -0.02100
C3660       C  0.57669536  0.53076142  0.27510590     0.02900
C3661       C  0.61378618  0.53317323  0.34645013     0.37500
C3662       C  0.56742839  0.56365169  0.25215897     0.37500
C3663       C  0.56720736  0.01520293  0.24761307     0.35900
C3664       C  0.60648520  0.57591493  0.35757799     0.35900
N3665       N  0.56052837  0.00315520  0.22482112    -0.38900
N3666       N  0.61227823  0.58464839  0.38229683    -0.38900
N3667       N  0.55902243  0.57037257  0.23233208    -0.38300
N3668       N  0.62586218  0.52873316  0.36390192    -0.38300
C3669       C  0.94276634  0.50714089  0.32030174    -0.05000
C3670       C  0.94478961  0.52874909  0.30419322    -0.02100
C3671       C  0.96858633  0.55272555  0.30461435     0.02900
C3672       C  0.99043052  0.55487867  0.32057505    -0.05000
C3673       C  0.98875969  0.53269476  0.33471784    -0.02100
C3674       C  0.96512737  0.50908783  0.33473027     0.02900
C3675       C  0.92237336  0.52654676  0.28787060     0.37500
C3676       C  0.01141635  0.53379388  0.34935571     0.37500
C3677       C  0.96430316  0.48676759  0.34959652     0.35900
C3678       C  0.97028902  0.57538239  0.28982678     0.35900
N3679       N  0.96441027  0.96979943  0.36338592    -0.38900
N3680       N  0.97154040  0.59347652  0.27812831    -0.38900
N3681       N  0.52945187  0.53337611  0.35969619    -0.38300
N3682       N  0.90460319  0.52490578  0.27460709    -0.38300
C3683       C  0.93263524  0.91679138  0.30427745    -0.05000
C3684       C  0.93919994  0.90067212  0.32131653    -0.02100
C3685       C  0.96389896  0.90302949  0.31766372     0.02900
C3686       C  0.98226040  0.92218448  0.29792212    -0.05000
C3687       C  0.97447404  0.93580738  0.27805470    -0.02100
C3688       C  0.94951016  0.93294300  0.28100570     0.02900
C3689       C  0.92102002  0.88259178  0.34354477     0.37500
C3690       C  0.49055325  0.94937642  0.25192840     0.37500
C3691       C  0.94219927  0.94846152  0.26208150     0.35900
C3692       C  0.97075450  0.88638376  0.33494351     0.35900
N3693       N  0.93644761  0.96086321  0.24691565    -0.38900
N3694       N  0.97584040  0.87265845  0.34839602    -0.38900
N3695       N  0.50425182  0.96248202  0.23272136    -0.38300
N3696       N  0.90655532  0.86810495  0.36125691    -0.38300
C3697       C  0.85626602  0.87375130  0.41492923    -0.05000
C3698       C  0.86713508  0.88128137  0.44486967    -0.02100
C3699       C  0.87252538  0.86460898  0.46266383     0.02900
C3700       C  0.86967380  0.84123407  0.44946700    -0.05000
C3701       C  0.85722537  0.83308210  0.41989364    -0.02100
C3702       C  0.84987173  0.84897719  0.40334976     0.02900
C3703       C  0.87472716  0.90715496  0.45656734     0.37500
C3704       C  0.85326491  0.80926464  0.40509205     0.37500
C3705       C  0.83717186  0.84052051  0.37331260     0.35900
C3706       C  0.88145853  0.87214681  0.49439374     0.35900
N3707       N  0.82685714  0.83346792  0.34952416    -0.38900
N3708       N  0.88854685  0.87832041  0.51966037    -0.38900
N3709       N  0.85022393  0.79038386  0.39305404    -0.38300
N3710       N  0.88139748  0.92789817  0.46601256    -0.38300
C3711       C  0.97068562  0.85653622  0.45285650    -0.05000
C3712       C  0.98799922  0.84905128  0.44045285    -0.02100
C3713       C  0.50936771  0.86718792  0.42055894     0.02900
C3714       C  0.51125275  0.89109625  0.41160745    -0.05000
C3715       C  0.49423040  0.89866157  0.42578574    -0.02100
C3716       C  0.97429738  0.88137735  0.44666095     0.02900
C3717       C  0.98427744  0.82347544  0.44733136     0.37500
C3718       C  0.49667342  0.92393479  0.42001780     0.37500
C3719       C  0.95646082  0.88910910  0.45952372     0.35900
C3720       C  0.52777509  0.85969566  0.40932302     0.35900
N3721       N  0.94229313  0.89540087  0.46954761    -0.38900
N3722       N  0.54253330  0.85367264  0.40065167    -0.38900
N3723       N  0.49832413  0.94394552  0.41548024    -0.38300
N3724       N  0.98114422  0.80301532  0.45279749    -0.38300
C3725       C  0.51599291  0.63009197  0.41603660    -0.05000
C3726       C  0.51132622  0.65041159  0.42553225    -0.02100
C3727       C  0.98630149  0.64484410  0.43874399     0.02900
C3728       C  0.96728155  0.61878125  0.44433138    -0.05000
C3729       C  0.97224562  0.59858426  0.43609215    -0.02100
C3730       C  0.99594977  0.60419985  0.42242571     0.02900
C3731       C  0.53158467  0.67730540  0.42259174     0.37500
C3732       C  0.95255906  0.57155941  0.44105701     0.37500
C3733       C  0.50166977  0.58234122  0.41743860     0.35900
C3734       C  0.98162736  0.66569097  0.44840018     0.35900
N3735       N  0.50448253  0.56455854  0.41319860    -0.38900
N3736       N  0.97780543  0.68225908  0.45612860    -0.38900
N3737       N  0.93714991  0.54999982  0.44499658    -0.38300
N3738       N  0.54787486  0.69881188  0.42098428    -0.38300
C3739       C  0.86047866  0.97914870  0.41201629    -0.05000
C3740       C  0.85637822  0.97826304  0.44421211    -0.02100
C3741       C  0.86367167  0.50156004  0.46076842     0.02900
C3742       C  0.87428092  0.52589523  0.44552275    -0.05000
C3743       C  0.87677549  0.52616454  0.41263084    -0.02100
C3744       C  0.86960388  0.50298048  0.39591534     0.02900
C3745       C  0.84389803  0.95331733  0.45952609     0.37500
C3746       C  0.88820125  0.55033964  0.39549200     0.37500
C3747       C  0.87206782  0.50360133  0.36242573     0.35900
C3748       C  0.85977249  0.50001480  0.49399414     0.35900
N3749       N  0.87377272  0.50405162  0.33572612    -0.38900
N3750       N  0.85634588  0.99858375  0.52105046    -0.38900
N3751       N  0.89734986  0.56949231  0.38165318    -0.38300
N3752       N  0.83346340  0.93343307  0.47180542    -0.38300
C3753       C  0.91513471  0.68400990  0.47109339    -0.05000
C3754       C  0.90426214  0.69031577  0.44547620    -0.02100
C3755       C  0.90760204  0.71558486  0.44315193     0.02900
C3756       C  0.92185677  0.73443324  0.46610163    -0.05000
C3757       C  0.93598365  0.72928603  0.99180073    -0.02100
C3758       C  0.93302109  0.70430828  0.99546165     0.02900
C3759       C  0.88797783  0.67066561  0.42282697     0.37500
C3760       C  0.95214866  0.75016241  0.01331181     0.37500
C3761       C  0.94689228  0.70012927  0.02043713     0.35900
C3762       C  0.89374289  0.72125665  0.41948964     0.35900
N3763       N  0.95801006  0.69711196  0.04056650    -0.38900
N3764       N  0.88263825  0.72579584  0.40070345    -0.38900
N3765       N  0.96511501  0.76680000  0.03042077    -0.38300
N3766       N  0.87510971  0.65515910  0.40450278    -0.38300
C3767       C  0.62591826  0.64479676  0.41132487    -0.05000
C3768       C  0.62259733  0.64321926  0.44371124    -0.02100
C3769       C  0.63737108  0.63576549  0.46262206     0.02900
C3770       C  0.65549077  0.62951821  0.44904407    -0.05000
C3771       C  0.66123493  0.63501190  0.41692692    -0.02100
C3772       C  0.64586133  0.64152349  0.39820915     0.02900
C3773       C  0.60200945  0.64659279  0.45713148     0.37500
C3774       C  0.68200535  0.63278111  0.40187063     0.37500
C3775       C  0.64792876  0.64065428  0.36469603     0.35900
C3776       C  0.63336645  0.63421564  0.49581836     0.35900
N3777       N  0.64910343  0.63865677  0.33812316    -0.38900
N3778       N  0.64615817  0.64604836  0.02097360    -0.38900
N3779       N  0.69835914  0.63090698  0.38959379    -0.38300
N3780       N  0.58541318  0.64909954  0.46761191    -0.38300
C3781       C  0.61253943  0.98176987  0.41173718    -0.05000
C3782       C  0.63890301  0.49505305  0.40613032    -0.02100
C3783       C  0.65571090  0.51675150  0.42478101     0.02900
C3784       C  0.64566260  0.52535176  0.44935523    -0.05000
C3785       C  0.61996378  0.00927698  0.45774093    -0.02100
C3786       C  0.60336821  0.98743365  0.43926645     0.02900
C3787       C  0.64948578  0.48802007  0.37988773     0.37500
C3788       C  0.60926932  0.01456649  0.48530331     0.37500
C3789       C  0.57664213  0.97057948  0.44882623     0.35900
C3790       C  0.68329052  0.53026030  0.41769857     0.35900
N3791       N  0.55541026  0.95713551  0.45653339    -0.38900
N3792       N  0.70521282  0.54090365  0.41184985    -0.38900
N3793       N  0.59783151  0.02597130  0.99754541    -0.38300
N3794       N  0.65833470  0.48274075  0.35908882    -0.38300
C3795       C  0.77643645  0.67283022  0.47360552    -0.05000
C3796       C  0.77764000  0.69606605  0.46338917    -0.02100
C3797       C  0.80413808  0.71665048  0.95695638     0.02900
C3798       C  0.82472364  0.71963698  0.47280048    -0.05000
C3799       C  0.82379259  0.69602548  0.47950069    -0.02100
C3800       C  0.79992569  0.67290904  0.48021796     0.02900
C3801       C  0.75805070  0.69044714  0.93976163     0.37500
C3802       C  0.84718880  0.69534751  0.48807543     0.37500
C3803       C  0.80001192  0.64958521  0.49007699     0.35900
C3804       C  0.80497211  0.74009191  0.94592155     0.35900
N3805       N  0.80148130  0.63206402  0.49917108    -0.38900
N3806       N  0.80560697  0.75881239  0.93714490    -0.38900
N3807       N  0.86487439  0.69335236  0.49555333    -0.38300
N3808       N  0.73995213  0.68891175  0.92743745    -0.38300
C3809       C  0.81375854  0.58418999  0.48039736    -0.05000
C3810       C  0.80228863  0.58567295  0.45234410    -0.02100
C3811       C  0.77744449  0.58364105  0.45280738     0.02900
C3812       C  0.76299168  0.57710790  0.48080319    -0.05000
C3813       C  0.77379743  0.56770264  0.00668735    -0.02100
C3814       C  0.80031790  0.57570123  0.00849024     0.02900
C3815       C  0.81704916  0.59213480  0.42385364     0.37500
C3816       C  0.75715311  0.55489114  0.03297081     0.37500
C3817       C  0.81135599  0.57881854  0.03927228     0.35900
C3818       C  0.76822931  0.59052195  0.42527778     0.35900
N3819       N  0.81849138  0.58176155  0.06474116    -0.38900
N3820       N  0.76120266  0.59635166  0.40329208    -0.38900
N3821       N  0.74415863  0.54467450  0.05406131    -0.38300
N3822       N  0.82877016  0.59702168  0.40110157    -0.38300
C3823       C  0.98145724  0.79215448  0.12295187    -0.05000
C3824       C  0.95466471  0.78134024  0.12965318    -0.02100
C3825       C  0.93872413  0.78697144  0.11056343     0.02900
C3826       C  0.94931575  0.80332095  0.08471298    -0.05000
C3827       C  0.97631620  0.81632420  0.08001801    -0.02100
C3828       C  0.99240300  0.81103056  0.09926831     0.02900
C3829       C  0.94284433  0.76272668  0.15441013     0.37500
C3830       C  0.98718020  0.83330919  0.05361600     0.37500
C3831       C  0.52052234  0.82571032  0.09461089     0.35900
C3832       C  0.91095946  0.77456235  0.11629247     0.35900
N3833       N  0.54269685  0.83726233  0.09050708    -0.38900
N3834       N  0.88884078  0.76461550  0.12085737    -0.38900
N3835       N  0.49615709  0.84737543  0.03260412    -0.38300
N3836       N  0.93328053  0.74781795  0.17408501    -0.38300
C3837       C  0.95231383  0.64587274  0.08270915    -0.05000
C3838       C  0.94362300  0.65130794  0.11081188    -0.02100
C3839       C  0.95916157  0.67479519  0.12709952     0.02900
C3840       C  0.98407423  0.69335230  0.11569344    -0.05000
C3841       C  0.99419208  0.68581523  0.09015669    -0.02100
C3842       C  0.97823125  0.66243519  0.07351435     0.02900
C3843       C  0.91799280  0.63310497  0.12266741     0.37500
C3844       C  0.52110752  0.70206473  0.08048842     0.37500
C3845       C  0.98799002  0.65655414  0.04557467     0.35900
C3846       C  0.94880469  0.67940718  0.15546057     0.35900
N3847       N  0.49626220  0.65094728  0.02484475    -0.38900
N3848       N  0.94034600  0.68285826  0.17801677    -0.38900
N3849       N  0.54238515  0.71473686  0.07246213    -0.38300
N3850       N  0.89755743  0.61907999  0.13230730    -0.38300
C3851       C  0.54147426  0.86295896  0.27615308    -0.05000
C3852       C  0.54709703  0.86345170  0.24399879    -0.02100
C3853       C  0.54072820  0.84026765  0.22797097     0.02900
C3854       C  0.53164902  0.81681370  0.24403178    -0.05000
C3855       C  0.52287489  0.81533639  0.27463485    -0.02100
C3856       C  0.52722683  0.83829918  0.29047555     0.02900
C3857       C  0.55978607  0.88754384  0.22670158     0.37500
C3858       C  0.50812690  0.79019858  0.28910672     0.37500
C3859       C  0.51526277  0.83616050  0.32032024     0.35900
C3860       C  0.54203680  0.84027160  0.19439624     0.35900
N3861       N  0.50496944  0.83416013  0.34371361    -0.38900
N3862       N  0.54244214  0.84061120  0.16761844    -0.38900
N3863       N  0.49577931  0.77017147  0.30061927    -0.38300
N3864       N  0.56980179  0.90657575  0.21265003    -0.38300
C3865       C  0.52322533  0.70879659  0.24626281    -0.05000
C3866       C  0.51710343  0.68390519  0.23525050    -0.02100
C3867       C  0.52174383  0.66716766  0.25415252     0.02900
C3868       C  0.53256090  0.67528433  0.28450238    -0.05000
C3869       C  0.53512536  0.69881824  0.29663128    -0.02100
C3870       C  0.53110185  0.71565968  0.27740349     0.02900
C3871       C  0.50852609  0.67653659  0.20338872     0.37500
C3872       C  0.54268374  0.70642654  0.32866778     0.37500
C3873       C  0.53652549  0.74088241  0.28934725     0.35900
C3874       C  0.51759669  0.64280845  0.24076390     0.35900
N3875       N  0.54134483  0.76109905  0.29894789    -0.38900
N3876       N  0.51441441  0.62352184  0.22981039    -0.38900
N3877       N  0.54882400  0.71287915  0.35412618    -0.38300
N3878       N  0.00273734  0.67093804  0.17824198    -0.38300
C3879       C  0.69106751  0.54724608  0.08332511    -0.05000
C3880       C  0.68250991  0.52133646  0.07408080    -0.02100
C3881       C  0.68912267  0.50543360  0.09186238     0.02900
C3882       C  0.70531159  0.51556907  0.11884203    -0.05000
C3883       C  0.71187779  0.54098879  0.12928102    -0.02100
C3884       C  0.70416291  0.55625989  0.11211551     0.02900
C3885       C  0.66869011  0.51152874  0.04483585     0.37500
C3886       C  0.72714961  0.55223649  0.15733818     0.37500
C3887       C  0.71057032  0.58189207  0.12375731     0.35900
C3888       C  0.68022435  0.97912926  0.08051894     0.35900
N3889       N  0.71586459  0.60235537  0.13304468    -0.38900
N3890       N  0.67297072  0.95817132  0.07141262    -0.38900
N3891       N  0.73919988  0.56138059  0.17971638    -0.38300
N3892       N  0.65806114  0.00374804  0.02108347    -0.38300
C3893       C  0.84767205  0.54610432  0.07626949    -0.05000
C3894       C  0.82331195  0.53048473  0.06208761    -0.02100
C3895       C  0.80102988  0.51582774  0.08015163     0.02900
C3896       C  0.80288264  0.51607765  0.11320202    -0.05000
C3897       C  0.82816126  0.52973861  0.12697712    -0.02100
C3898       C  0.85042718  0.54428404  0.10837533     0.02900
C3899       C  0.82117021  0.52992159  0.02847595     0.37500
C3900       C  0.83165548  0.52928077  0.16017494     0.37500
C3901       C  0.87625970  0.55719909  0.12207785     0.35900
C3902       C  0.77619441  0.00159150  0.06374607     0.35900
N3903       N  0.89696107  0.56704461  0.13277359    -0.38900
N3904       N  0.75656988  0.99021397  0.05059785    -0.38900
N3905       N  0.83474865  0.52920934  0.18665697    -0.38300
N3906       N  0.81944886  0.52941175  0.00173719    -0.38300
C3907       C  0.68629304  0.97335155  0.25119037    -0.05000
C3908       C  0.67925679  0.95820552  0.27847013    -0.02100
C3909       C  0.65529897  0.95074380  0.29333366     0.02900
C3910       C  0.63816442  0.95924347  0.28207274    -0.05000
C3911       C  0.64677796  0.97684688  0.25674212    -0.02100
C3912       C  0.67025609  0.98337256  0.24126654     0.02900
C3913       C  0.69618257  0.94918107  0.29091140     0.37500
C3914       C  0.63196462  0.48870330  0.24602233     0.37500
C3915       C  0.67713517  0.49960669  0.21441809     0.35900
C3916       C  0.64831494  0.93343800  0.31959989     0.35900
N3917       N  0.68143987  0.51205919  0.19243651    -0.38900
N3918       N  0.64295342  0.91954205  0.34042477    -0.38900
N3919       N  0.62000644  0.49785314  0.23672316    -0.38300
N3920       N  0.70931395  0.94159229  0.30083161    -0.38300
C3921       C  0.78962937  0.97186644  0.24338189    -0.05000
C3922       C  0.80664590  0.96483796  0.22898092    -0.02100
C3923       C  0.82148789  0.95707269  0.24696106     0.02900
C3924       C  0.81952919  0.95633608  0.27972178    -0.05000
C3925       C  0.80395887  0.96530012  0.29415764    -0.02100
C3926       C  0.78945646  0.97351778  0.27597661     0.02900
C3927       C  0.80764902  0.96413515  0.19536767     0.37500
C3928       C  0.80268075  0.96589808  0.32765752     0.37500
C3929       C  0.77367145  0.48260105  0.29083333     0.35900
C3930       C  0.83722168  0.94796366  0.23134997     0.35900
N3931       N  0.76149810  0.49057102  0.30266291    -0.38900
N3932       N  0.84966858  0.94067759  0.21874225    -0.38900
N3933       N  0.80159062  0.46582649  0.35429533    -0.38300
N3934       N  0.80817536  0.96337559  0.16858871    -0.38300
C3935       C  0.60157368  0.84934717  0.15175376    -0.05000
C3936       C  0.61076993  0.86409801  0.17958257    -0.02100
C3937       C  0.63133892  0.88975116  0.17885877     0.02900
C3938       C  0.64754634  0.89857920  0.15268852    -0.05000
C3939       C  0.63752915  0.88496435  0.12421463    -0.02100
C3940       C  0.61344872  0.86133678  0.12360691     0.02900
C3941       C  0.60131816  0.85301439  0.20982440     0.37500
C3942       C  0.65204049  0.89430335  0.09574465     0.37500
C3943       C  0.60177907  0.84916266  0.09419690     0.35900
C3944       C  0.63569206  0.90666275  0.20540975     0.35900
N3945       N  0.59247667  0.84025295  0.07036692    -0.38900
N3946       N  0.63839201  0.91981585  0.22665051    -0.38900
N3947       N  0.66354798  0.90138829  0.07290738    -0.38300
N3948       N  0.59574680  0.84561556  0.23489526    -0.38300
C3949       C  0.84621284  0.79226931  0.07715241    -0.05000
C3950       C  0.82660059  0.76677880  0.08553096    -0.02100
C3951       C  0.80543995  0.76309183  0.10391893     0.02900
C3952       C  0.80258484  0.78454216  0.11288053    -0.05000
C3953       C  0.82232859  0.80995843  0.10539215    -0.02100
C3954       C  0.84444727  0.81383900  0.08860232     0.02900
C3955       C  0.82720695  0.74375604  0.07467900     0.37500
C3956       C  0.82020642  0.83226094  0.11559360     0.37500
C3957       C  0.86596924  0.84004423  0.08483713     0.35900
C3958       C  0.78605989  0.73681354  0.11246893     0.35900
N3959       N  0.88330648  0.86098208  0.08256017    -0.38900
N3960       N  0.77096695  0.71578312  0.11934390    -0.38900
N3961       N  0.81845605  0.84999462  0.12376812    -0.38300
N3962       N  0.82727922  0.72512889  0.06645843    -0.38300
C3963       C  0.70982284  0.69940353  0.10470418    -0.05000
C3964       C  0.71957410  0.70171909  0.07400317    -0.02100
C3965       C  0.71459143  0.67946117  0.05690895     0.02900
C3966       C  0.70188908  0.65481254  0.07059740    -0.05000
C3967       C  0.69084151  0.65194041  0.10021622    -0.02100
C3968       C  0.69450819  0.67414414  0.11712441     0.02900
C3969       C  0.73620350  0.72684297  0.05992598     0.37500
C3970       C  0.67607962  0.62626328  0.11346134     0.37500
C3971       C  0.68236990  0.67074915  0.14715923     0.35900
C3972       C  0.72196417  0.68185144  0.02452873     0.35900
N3973       N  0.67261295  0.66794515  0.17108349    -0.38900
N3974       N  0.72740697  0.68364548  0.99863578    -0.38900
N3975       N  0.66413419  0.60573790  0.12396428    -0.38300
N3976       N  0.74962049  0.74670817  0.04851471    -0.38300
C3977       C  0.77912804  0.81343280  0.24429906    -0.05000
C3978       C  0.76993251  0.81784037  0.27259833    -0.02100
C3979       C  0.78623423  0.83946999  0.29155406     0.02900
C3980       C  0.81220506  0.85688175  0.28257623    -0.05000
C3981       C  0.82225343  0.85040842  0.25623099    -0.02100
C3982       C  0.80577706  0.82879715  0.23719275     0.02900
C3983       C  0.74327461  0.80033156  0.28185244     0.37500
C3984       C  0.84948912  0.86610374  0.24819221     0.37500
C3985       C  0.81597865  0.82362577  0.20915401     0.35900
C3986       C  0.77544748  0.84435345  0.31927888     0.35900
N3987       N  0.82424712  0.81953230  0.18688425    -0.38900
N3988       N  0.76668002  0.84806912  0.34137037    -0.38900
N3989       N  0.87115719  0.87847954  0.24148396    -0.38300
N3990       N  0.72199337  0.78633934  0.28899523    -0.38300
C3991       C  0.63240122  0.69375653  0.27955528    -0.05000
C3992       C  0.62715389  0.70592150  0.25478850    -0.02100
C3993       C  0.64752311  0.72440010  0.23649746     0.02900
C3994       C  0.67265755  0.72687167  0.23789389    -0.05000
C3995       C  0.67810401  0.71517919  0.26325461    -0.02100
C3996       C  0.65860140  0.70085542  0.28544464     0.02900
C3997       C  0.60096308  0.70085545  0.24892200     0.37500
C3998       C  0.70408450  0.71917264  0.26797532     0.37500
C3999       C  0.66627407  0.69620512  0.31543892     0.35900
C4000       C  0.64275567  0.74257218  0.21921997     0.35900
N4001       N  0.67354334  0.69448443  0.33970820    -0.38900
N4002       N  0.63906975  0.75772278  0.20686330    -0.38900
N4003       N  0.72476281  0.72217161  0.27170380    -0.38300
N4004       N  0.58035941  0.69726006  0.24325118    -0.38300
C4005       C  0.75579315  0.85836405  0.13461019    -0.05000
C4006       C  0.76607962  0.87507506  0.16047925    -0.02100
C4007       C  0.75866186  0.89377195  0.16587865     0.02900
C4008       C  0.74671316  0.90035903  0.14186329    -0.05000
C4009       C  0.74314306  0.88826265  0.11238499    -0.02100
C4010       C  0.74752595  0.86695591  0.10884292     0.02900
C4011       C  0.78197427  0.87123239  0.18318270     0.37500
C4012       C  0.73206077  0.89544042  0.08692361     0.37500
C4013       C  0.74311061  0.85368292  0.07922511     0.35900
C4014       C  0.76031671  0.90296173  0.19746826     0.35900
N4015       N  0.73997875  0.84323157  0.05550079    -0.38900
N4016       N  0.76107621  0.90828845  0.22344761    -0.38900
N4017       N  0.72305225  0.90096594  0.06658142    -0.38300
N4018       N  0.79479530  0.86860977  0.20141987    -0.38300
C4019       C  0.60364643  0.75722431  0.13214536    -0.05000
C4020       C  0.62119809  0.77527796  0.11044053    -0.02100
C4021       C  0.64636991  0.77876630  0.10745442     0.02900
C4022       C  0.65315195  0.76258846  0.12365721    -0.05000
C4023       C  0.63361455  0.74039084  0.13850874    -0.02100
C4024       C  0.60897551  0.73808591  0.14367647     0.02900
C4025       C  0.61376349  0.79025751  0.09092046     0.37500
C4026       C  0.63936939  0.72066630  0.14932477     0.37500
C4027       C  0.58912852  0.71600887  0.16023785     0.35900
C4028       C  0.66549038  0.79938469  0.08835209     0.35900
N4029       N  0.57313782  0.69817857  0.17307720    -0.38900
N4030       N  0.68049165  0.81580457  0.07286794    -0.38900
N4031       N  0.64409189  0.70490819  0.15756656    -0.38300
N4032       N  0.60788887  0.80165450  0.07424688    -0.38300
O4033       O  0.69300303  0.76102922  0.61617222    -0.81400
C4034       C  0.76179785  0.79745631  0.71897490     0.97900
O4035       O  0.74134651  0.79873653  0.71528978    -0.70600
O4036       O  0.74128347  0.82190574  0.66563362    -0.74200
Al4037     Al  0.71726582  0.79006262  0.68222418     1.49000
C4038       C  0.74397387  0.82836632  0.63769645     0.93200
O4039       O  0.76615046  0.79019243  0.61740687    -0.80400
O4040       O  0.71601712  0.72303598  0.65549350    -0.71200
Al4041     Al  0.72967678  0.77584031  0.61865724     1.90100
O4042       O  0.76768214  0.76171786  0.64856713    -0.73000
O4043       O  0.71503316  0.74164209  0.71196774    -0.72900
O4044       O  0.76580063  0.78203640  0.70260549    -0.78500
O4045       O  0.69210862  0.76022067  0.70188583    -0.76700
O4046       O  0.72906754  0.77314230  0.65984300    -1.12900
O4047       O  0.69026556  0.78480999  0.65376057    -0.72000
C4048       C  0.68004933  0.76871227  0.63163223     0.98700
C4049       C  0.77767598  0.77859190  0.62738616     0.95100
Al4050     Al  0.74023672  0.75363859  0.67819357     1.55600
O4051       O  0.73577300  0.81105389  0.61675800    -0.76700
C4052       C  0.69523411  0.74404860  0.71718076     0.99200
C4053       C  0.71466342  0.72141275  0.62624777     0.94100
O4054       O  0.72396273  0.74194496  0.61067394    -0.82000
O4055       O  0.74342952  0.93743927  0.62836473    -0.81400
C4056       C  0.70731040  0.97235211  0.72954920     0.97900
O4057       O  0.71172706  0.95360584  0.72943752    -0.70600
O4058       O  0.68655898  0.92229286  0.68391904    -0.74200
Al4059     Al  0.72131481  0.93787056  0.69729088     1.49000
C4060       C  0.67746730  0.91616204  0.65681267     0.93200
O4061       O  0.70710773  0.97510610  0.62670903    -0.80400
O4062       O  0.77795660  0.50626500  0.65948462    -0.73900
Al4063     Al  0.72564988  0.95680619  0.63020230     1.90100
O4064       O  0.73310524  0.50929012  0.65352682    -0.73000
O4065       O  0.76667379  0.49189092  0.71812367    -0.72900
O4066       O  0.71895276  0.49057457  0.70999692    -0.78500
O4067       O  0.75493573  0.95050580  0.71348901    -0.76700
O4068       O  0.73169581  0.96377379  0.67072226    -1.12900
O4069       O  0.72825112  0.91597981  0.67138622    -0.72000
C4070       C  0.73998027  0.91923910  0.64609881     0.98700
C4071       C  0.71480871  0.49829039  0.63391108     0.95100
Al4072     Al  0.74779861  0.49675174  0.68418084     1.55600
O4073       O  0.69231487  0.92603237  0.63399422    -0.76700
C4074       C  0.77024532  0.97277777  0.72427683     0.99200
C4075       C  0.77827834  0.50233961  0.63067578     0.94100
O4076       O  0.75744637  0.98588314  0.61764530    -0.82000
O4077       O  0.56370632  0.80796720  0.63580948    -0.81400
C4078       C  0.52616918  0.72747719  0.72584413     0.97900
O4079       O  0.54765562  0.74807995  0.72461199    -0.70600
O4080       O  0.57638646  0.75546439  0.67516082    -0.74200
Al4081     Al  0.56366865  0.77556004  0.69641555     1.49000
C4082       C  0.58195570  0.75778014  0.64663544     0.93200
O4083       O  0.52189619  0.73488588  0.62073312    -0.80400
O4084       O  0.99846469  0.77454539  0.66225034    -0.73900
Al4085     Al  0.54222003  0.77093645  0.63024626     1.90100
O4086       O  0.99316831  0.72604485  0.65073375    -0.73000
O4087       O  0.01581871  0.77486235  0.71774572    -0.72900
O4088       O  0.01163526  0.72645564  0.70577679    -0.78500
O4089       O  0.55416080  0.79686910  0.71928408    -0.76700
O4090       O  0.53655205  0.76539784  0.67094761    -1.12900
O4091       O  0.58653613  0.80595886  0.67460588    -0.72000
C4092       C  0.58318479  0.81883074  0.65387717     0.98700
C4093       C  0.00223027  0.71931564  0.62826745     0.95100
Al4094     Al  0.00761497  0.75175961  0.68266067     1.55600
O4095       O  0.57149342  0.76643117  0.62856081    -0.76700
C4096       C  0.53236374  0.79313805  0.72839130     0.99200
C4097       C  0.00092196  0.78060259  0.63410028     0.94100
O4098       O  0.51421677  0.77664500  0.62143980    -0.82000
O4099       O  0.73526621  0.63634169  0.95921941    -0.81400
C4100       C  0.68950680  0.56471602  0.56180395     0.97900
O4101       O  0.70988621  0.58645474  0.56162372    -0.70600
O4102       O  0.73875411  0.58857818  0.51524815    -0.74200
Al4103     Al  0.72734711  0.61116285  0.53093162     1.49000
C4104       C  0.74478472  0.58318594  0.98590739     0.93200
O4105       O  0.68620642  0.56429643  0.95478514    -0.80400
O4106       O  0.66573028  0.61065730  0.99168162    -0.73900
Al4107     Al  0.70990576  0.59999029  0.96027337     1.90100
O4108       O  0.65515243  0.55948439  0.98549541    -0.73000
O4109       O  0.67641955  0.60871531  0.55278850    -0.72900
O4110       O  0.67144605  0.55982099  0.54257986    -0.78500
O4111       O  0.71860405  0.63478902  0.54881314    -0.76700
O4112       O  0.70120087  0.59950517  0.50404631    -1.12900
O4113       O  0.75145136  0.63871200  0.50704954    -0.72000
C4114       C  0.75504446  0.64664389  0.97653682     0.98700
C4115       C  0.66339965  0.55059593  0.96443451     0.95100
Al4116     Al  0.66846312  0.58538618  0.51798637     1.55600
O4117       O  0.73617637  0.59033450  0.96352288    -0.76700
C4118       C  0.69676848  0.62989559  0.55911042     0.99200
C4119       C  0.67127406  0.61686501  0.96362860     0.94100
O4120       O  0.68527687  0.60982601  0.94931588    -0.82000
O4121       O  0.85643681  0.58751449  0.96564496    -0.81400
C4122       C  0.93204582  0.62792127  0.55744090     0.97900
O4123       O  0.91126867  0.62840491  0.55532457    -0.70600
O4124       O  0.90492590  0.65079481  0.50824079    -0.74200
Al4125     Al  0.88463868  0.61778870  0.52650377     1.49000
C4126       C  0.90733151  0.65582068  0.98404889     0.93200
O4127       O  0.92985105  0.61876686  0.95387911    -0.80400
O4128       O  0.89142187  0.55236610  0.99397897    -0.73900
Al4129     Al  0.89351839  0.60345080  0.96218873     1.90100
O4130       O  0.93916920  0.59613388  0.98643709    -0.73000
O4131       O  0.88775112  0.56832133  0.54843463    -0.72900
O4132       O  0.93594332  0.61293658  0.54024035    -0.78500
O4133       O  0.86361281  0.58692409  0.54760616    -0.76700
O4134       O  0.89585207  0.60202011  0.50034100    -1.12900
O4135       O  0.85444070  0.61082070  0.50399757    -0.72000
C4136       C  0.84440854  0.59449150  0.98393738     0.98700
C4137       C  0.94504577  0.61106329  0.96346646     0.95100
Al4138     Al  0.91137526  0.58462941  0.51479848     1.55600
O4139       O  0.89887309  0.63817638  0.96343750    -0.76700
C4140       C  0.86776328  0.56917610  0.55664641     0.99200
C4141       C  0.88540832  0.55050639  0.96559045     0.94100
O4142       O  0.88758763  0.57005593  0.95177300    -0.82000
O4143       O  0.91801403  0.77182032  0.95899772    -0.81400
C4144       C  0.86864233  0.79483780  0.55785328     0.97900
O4145       O  0.87549150  0.77784773  0.55780557    -0.70600
O4146       O  0.85475168  0.74980101  0.50807097    -0.74200
Al4147     Al  0.88851029  0.76577142  0.52519189     1.49000
C4148       C  0.84959695  0.74318510  0.97893852     0.93200
O4149       O  0.87625546  0.80426890  0.95320462    -0.80400
O4150       O  0.94357086  0.83928705  0.99587541    -0.73900
Al4151     Al  0.89736766  0.78868649  0.95873976     1.90100
O4152       O  0.89711253  0.83745501  0.98452449    -0.73000
O4153       O  0.92868667  0.81848455  0.55346802    -0.72900
O4154       O  0.88009459  0.81432610  0.54045542    -0.78500
O4155       O  0.92071907  0.77858405  0.54474798    -0.76700
O4156       O  0.89944014  0.79321644  0.50104910    -1.12900
O4157       O  0.89919711  0.74741963  0.49877244    -0.72000
C4158       C  0.91308493  0.75265088  0.97595346     0.98700
C4159       C  0.88117030  0.82653229  0.96240609     0.95100
Al4160     Al  0.91172036  0.82466287  0.51825521     1.55600
O4161       O  0.86584588  0.75572608  0.95816453    -0.76700
C4162       C  0.93290954  0.79989029  0.55906100     0.99200
C4163       C  0.94643887  0.83768234  0.96708198     0.94100
O4164       O  0.92851361  0.82040293  0.95046808    -0.82000
O4165       O  0.90895396  0.96932404  0.80105946    -0.81400
C4166       C  0.85940851  0.89435161  0.89019406     0.97900
O4167       O  0.88159252  0.90834336  0.87919879    -0.70600
O4168       O  0.91681105  0.93447495  0.83896631    -0.74200
Al4169     Al  0.89463457  0.94178619  0.86401625     1.49000
C4170       C  0.91437370  0.92321153  0.81325958     0.93200
O4171       O  0.84668288  0.90425799  0.78239759    -0.80400
O4172       O  0.82450975  0.93125905  0.81640626    -0.73900
Al4173     Al  0.87686342  0.93646966  0.79585581     1.90100
O4174       O  0.82700122  0.88608138  0.82563861    -0.73000
O4175       O  0.84288974  0.94643348  0.87299373    -0.72900
O4176       O  0.84089015  0.89859370  0.88394951    -0.78500
O4177       O  0.87826079  0.95167483  0.89585720    -0.76700
O4178       O  0.86932357  0.93164951  0.83610674    -1.12900
O4179       O  0.91092082  0.97655592  0.85124943    -0.72000
C4180       C  0.91965307  0.98389614  0.82444791     0.98700
C4181       C  0.83037609  0.88433467  0.79708922     0.95100
Al4182     Al  0.83644100  0.91678644  0.84877402     1.55600
O4183       O  0.89528495  0.91778600  0.79574776    -0.76700
C4184       C  0.86046522  0.95742613  0.89328915     0.99200
C4185       C  0.83660183  0.94896805  0.79667995     0.94100
O4186       O  0.85994697  0.95612143  0.79057841    -0.82000
O4187       O  0.52402188  0.92573170  0.78462754    -0.81400
C4188       C  0.59332673  0.96210899  0.88818665     0.97900
O4189       O  0.57226876  0.96209043  0.88439484    -0.70600
O4190       O  0.57146529  0.98579143  0.83548740    -0.74200
Al4191     Al  0.54840730  0.95316801  0.85120156     1.49000
C4192       C  0.57533407  0.99291747  0.80775905     0.93200
O4193       O  0.59725675  0.95517901  0.78386330    -0.80400
O4194       O  0.55292281  0.88843324  0.82187703    -0.73900
Al4195     Al  0.56093366  0.94061793  0.78657016     1.90100
O4196       O  0.60306585  0.93057379  0.81646531    -0.73000
O4197       O  0.54933453  0.90556949  0.87867954    -0.72900
O4198       O  0.59863358  0.94813953  0.87089635    -0.78500
O4199       O  0.52426281  0.92216221  0.86996586    -0.76700
O4200       O  0.56130528  0.93762298  0.82773177    -1.12900
O4201       O  0.52108427  0.94798919  0.82362152    -0.72000
C4202       C  0.51091759  0.93276277  0.80083532     0.98700
C4203       C  0.61176989  0.94739588  0.79522849     0.95100
Al4204     Al  0.57473383  0.91959179  0.84538377     1.55600
O4205       O  0.56745802  0.97609101  0.78618873    -0.76700
C4206       C  0.52905114  0.90685455  0.88489037     0.99200
C4207       C  0.54961955  0.88667993  0.79280819     0.94100
O4208       O  0.55494769  0.90676464  0.77764204    -0.82000
O4209       O  0.58448631  0.60734790  0.79844767    -0.81400
C4210       C  0.54023829  0.63471220  0.89770921     0.97900
O4211       O  0.54928071  0.61952384  0.89926569    -0.70600
O4212       O  0.52407465  0.58793798  0.85277570    -0.74200
Al4213     Al  0.55902172  0.60492008  0.86580849     1.49000
C4214       C  0.51677600  0.57945211  0.82563045     0.93200
O4215       O  0.54133830  0.63814676  0.79457508    -0.80400
O4216       O  0.61193013  0.67645760  0.82991677    -0.73900
Al4217     Al  0.56325503  0.62349179  0.79887729     1.90100
O4218       O  0.56399632  0.67310840  0.82283525    -0.73000
O4219       O  0.60057911  0.65928912  0.88792276    -0.72900
O4220       O  0.54999123  0.65311467  0.87855762    -0.78500
O4221       O  0.59264341  0.61919441  0.88056277    -0.76700
O4222       O  0.56790395  0.63059895  0.83931269    -1.12900
O4223       O  0.56683250  0.58399669  0.83965972    -0.72000
C4224       C  0.58003636  0.58831905  0.81543785     0.98700
C4225       C  0.54668292  0.66083266  0.80233767     0.95100
Al4226     Al  0.58059259  0.66293179  0.85384613     1.55600
O4227       O  0.53158129  0.59008884  0.80276072    -0.76700
C4228       C  0.60630504  0.64148120  0.89213946     0.99200
C4229       C  0.61272554  0.67395359  0.80086428     0.94100
O4230       O  0.59370675  0.65545064  0.78654299    -0.82000
C4231       C  0.58704282  0.52120733  0.80184082    -0.05000
C4232       C  0.60123921  0.53852955  0.82617828    -0.02100
C4233       C  0.59976125  0.56120430  0.83059044     0.02900
C4234       C  0.58864274  0.56941215  0.80729482    -0.05000
C4235       C  0.58080155  0.55536713  0.77891106    -0.02100
C4236       C  0.57948357  0.53085219  0.77639690     0.02900
C4237       C  0.61590897  0.53216587  0.84796886     0.37500
C4238       C  0.57126343  0.56450594  0.75378197     0.37500
C4239       C  0.57030580  0.01583740  0.74827134     0.35900
C4240       C  0.60629668  0.57337204  0.86104276     0.35900
N4241       N  0.56292673  0.00373783  0.72557454    -0.38900
N4242       N  0.61073852  0.58135253  0.88619787    -0.38900
N4243       N  0.56366823  0.57180058  0.73368286    -0.38300
N4244       N  0.62793987  0.52751725  0.86527333    -0.38300
C4245       C  0.94484034  0.50815832  0.82082108    -0.05000
C4246       C  0.94726672  0.53001121  0.80496531    -0.02100
C4247       C  0.97089329  0.55401922  0.80681367     0.02900
C4248       C  0.99255121  0.55557248  0.82255613    -0.05000
C4249       C  0.99063064  0.53306345  0.83601679    -0.02100
C4250       C  0.96678934  0.50974398  0.83594767     0.02900
C4251       C  0.92550547  0.52793357  0.78722849     0.37500
C4252       C  0.01325700  0.53349727  0.84981975     0.37500
C4253       C  0.96530008  0.48741253  0.85159457     0.35900
C4254       C  0.97243659  0.57734000  0.79423920     0.35900
N4255       N  0.96501485  0.97065620  0.86600731    -0.38900
N4256       N  0.97344996  0.59601199  0.78466345    -0.38900
N4257       N  0.53019356  0.53128487  0.85797933    -0.38300
N4258       N  0.90828070  0.52626950  0.77270347    -0.38300
C4259       C  0.93585172  0.91907163  0.80285739    -0.05000
C4260       C  0.94304679  0.90367695  0.82049076    -0.02100
C4261       C  0.96735512  0.90536795  0.81563982     0.02900
C4262       C  0.98533399  0.92390999  0.79506822    -0.05000
C4263       C  0.97709375  0.93707169  0.77504582    -0.02100
C4264       C  0.95217255  0.93438615  0.77861852     0.02900
C4265       C  0.92605824  0.88707951  0.84461837     0.37500
C4266       C  0.49176220  0.95161364  0.75054843     0.37500
C4267       C  0.94434202  0.94919260  0.75916237     0.35900
C4268       C  0.97402094  0.88811762  0.83184244     0.35900
N4269       N  0.93810254  0.96099137  0.74359442    -0.38900
N4270       N  0.97893253  0.87375802  0.84406829    -0.38900
N4271       N  0.50525430  0.96451896  0.73106869    -0.38300
N4272       N  0.91271228  0.87390881  0.86405126    -0.38300
C4273       C  0.85650483  0.87360001  0.91139124    -0.05000
C4274       C  0.86584500  0.88036299  0.94201146    -0.02100
C4275       C  0.87115106  0.86362295  0.95977265     0.02900
C4276       C  0.86940030  0.84080591  0.94619913    -0.05000
C4277       C  0.85844766  0.83337751  0.91583666    -0.02100
C4278       C  0.85160991  0.84951847  0.89894317     0.02900
C4279       C  0.87256015  0.90584883  0.95433846     0.37500
C4280       C  0.85579165  0.81023471  0.90059698     0.37500
C4281       C  0.84149968  0.84236962  0.86754666     0.35900
C4282       C  0.87934936  0.87086046  0.99174270     0.35900
N4283       N  0.83346490  0.83658899  0.84253960    -0.38900
N4284       N  0.88604704  0.87707800  0.01709739    -0.38900
N4285       N  0.85376543  0.79189958  0.88815738    -0.38300
N4286       N  0.87866048  0.92631113  0.96431545    -0.38300
C4287       C  0.97032146  0.85716485  0.95139382    -0.05000
C4288       C  0.98896895  0.85065177  0.94135909    -0.02100
C4289       C  0.50940453  0.86764003  0.92097225     0.02900
C4290       C  0.51044988  0.89071297  0.90996924    -0.05000
C4291       C  0.49295200  0.89820191  0.92301977    -0.02100
C4292       C  0.97246994  0.88093577  0.94256936     0.02900
C4293       C  0.98748804  0.82685048  0.95231698     0.37500
C4294       C  0.49458253  0.92285284  0.91550685     0.37500
C4295       C  0.95423522  0.88843578  0.95469465     0.35900
C4296       C  0.52888890  0.86086592  0.91207521     0.35900
N4297       N  0.93995591  0.89468269  0.96446332    -0.38900
N4298       N  0.54456793  0.85547461  0.90544654    -0.38900
N4299       N  0.49559115  0.94237427  0.90961702    -0.38300
N4300       N  0.98623242  0.80791825  0.96136594    -0.38300
C4301       C  0.51704038  0.62943332  0.91708899    -0.05000
C4302       C  0.51206535  0.64967519  0.92599486    -0.02100
C4303       C  0.98758449  0.64401047  0.93899149     0.02900
C4304       C  0.96963926  0.61805692  0.94681645    -0.05000
C4305       C  0.97557378  0.59826785  0.93980910    -0.02100
C4306       C  0.99932698  0.60426418  0.92577833     0.02900
C4307       C  0.53214106  0.67659553  0.92267313     0.37500
C4308       C  0.95662301  0.57119335  0.94584718     0.37500
C4309       C  0.50308822  0.58182326  0.91923645     0.35900
C4310       C  0.98182673  0.66453462  0.94659952     0.35900
N4311       N  0.50617469  0.56417127  0.91534079    -0.38900
N4312       N  0.97710681  0.68082765  0.95263011    -0.38900
N4313       N  0.94165006  0.54961292  0.95050810    -0.38300
N4314       N  0.54832591  0.69812898  0.92087423    -0.38300
C4315       C  0.86270123  0.97985477  0.91146318    -0.05000
C4316       C  0.85684017  0.97806291  0.94326559    -0.02100
C4317       C  0.86390198  0.50087459  0.96104369     0.02900
C4318       C  0.87667419  0.52579033  0.94708884    -0.05000
C4319       C  0.88112596  0.52710209  0.91451759    -0.02100
C4320       C  0.87372388  0.50432750  0.89689693     0.02900
C4321       C  0.84274629  0.95262201  0.95724947     0.37500
C4322       C  0.89450111  0.55186807  0.89865305     0.37500
C4323       C  0.87742524  0.50597192  0.86358016     0.35900
C4324       C  0.85716656  0.49834214  0.99357427     0.35900
N4325       N  0.88001016  0.50726415  0.83699041    -0.38900
N4326       N  0.85094665  0.99616614  0.01940958    -0.38900
N4327       N  0.90511978  0.57147721  0.88579570    -0.38300
N4328       N  0.83107369  0.93230553  0.96831785    -0.38300
C4329       C  0.91612619  0.68352290  0.97551816    -0.05000
C4330       C  0.90583167  0.68944430  0.94894304    -0.02100
C4331       C  0.90812916  0.71429225  0.94609354     0.02900
C4332       C  0.92171267  0.73365819  0.96881355    -0.05000
C4333       C  0.93687270  0.72970421  0.48760185    -0.02100
C4334       C  0.93360615  0.70455359  0.49012771     0.02900
C4335       C  0.89150442  0.66983652  0.92532385     0.37500
C4336       C  0.95427601  0.75037249  0.50859859     0.37500
C4337       C  0.94883505  0.69985958  0.51285346     0.35900
C4338       C  0.89399917  0.71892918  0.92179407     0.35900
N4339       N  0.96114673  0.69632193  0.53095625    -0.38900
N4340       N  0.88253966  0.72243759  0.90248017    -0.38900
N4341       N  0.96831443  0.76684259  0.52525589    -0.38300
N4342       N  0.88033049  0.65433157  0.90624717    -0.38300
C4343       C  0.62914623  0.64544620  0.91040728    -0.05000
C4344       C  0.62928986  0.64737725  0.94296451    -0.02100
C4345       C  0.64512026  0.64064227  0.96087952     0.02900
C4346       C  0.66037496  0.63128804  0.94609490    -0.05000
C4347       C  0.66349193  0.63410306  0.91338025    -0.02100
C4348       C  0.64718699  0.64002487  0.89572813     0.02900
C4349       C  0.61119767  0.65365933  0.95801379     0.37500
C4350       C  0.68246814  0.62981572  0.89695010     0.37500
C4351       C  0.64636274  0.63667381  0.86223967     0.35900
C4352       C  0.64558763  0.64347097  0.99430722     0.35900
N4353       N  0.64527437  0.63306022  0.83573155    -0.38900
N4354       N  0.63021026  0.63321841  0.52234505    -0.38900
N4355       N  0.69749953  0.62643502  0.88365735    -0.38300
N4356       N  0.59660064  0.65849844  0.96991160    -0.38300
C4357       C  0.61180388  0.97990321  0.91257043    -0.05000
C4358       C  0.63928505  0.49173541  0.90947737    -0.02100
C4359       C  0.65612955  0.51300792  0.92871620     0.02900
C4360       C  0.64595043  0.52430750  0.94976208    -0.05000
C4361       C  0.61866167  0.01033221  0.95536703    -0.02100
C4362       C  0.60205452  0.98787487  0.93779715     0.02900
C4363       C  0.65028077  0.48299557  0.88535992     0.37500
C4364       C  0.60720145  0.01912183  0.97888611     0.37500
C4365       C  0.57472234  0.97283302  0.94595473     0.35900
C4366       C  0.68395280  0.52284269  0.92678199     0.35900
N4367       N  0.55299899  0.96075123  0.95249344    -0.38900
N4368       N  0.70608282  0.53046846  0.92542927    -0.38900
N4369       N  0.60055153  0.01860972  0.50723051    -0.38300
N4370       N  0.65932816  0.47628872  0.86614883    -0.38300
C4371       C  0.77981039  0.67008369  0.96802895    -0.05000
C4372       C  0.78081635  0.69234175  0.95482053    -0.02100
C4373       C  0.80183203  0.71966708  0.46368093     0.02900
C4374       C  0.82632930  0.71821316  0.97130098    -0.05000
C4375       C  0.82615876  0.69532633  0.98015392    -0.02100
C4376       C  0.80319861  0.67142208  0.97810984     0.02900
C4377       C  0.75422360  0.69605348  0.45367791     0.37500
C4378       C  0.84917993  0.69597606  0.99300054     0.37500
C4379       C  0.80380405  0.64840061  0.98818701     0.35900
C4380       C  0.80305914  0.74408579  0.45626890     0.35900
N4381       N  0.80523655  0.63085407  0.99725198    -0.38900
N4382       N  0.80410000  0.76363447  0.45048596    -0.38900
N4383       N  0.86650203  0.69483346  0.00372093    -0.38300
N4384       N  0.73582169  0.69637959  0.44526335    -0.38300
C4385       C  0.81585560  0.58385930  0.98144871    -0.05000
C4386       C  0.80400252  0.58366634  0.95290324    -0.02100
C4387       C  0.77840335  0.57982725  0.95257367     0.02900
C4388       C  0.76415565  0.57435182  0.98059660    -0.05000
C4389       C  0.77184421  0.56842844  0.50578116    -0.02100
C4390       C  0.79809883  0.57530212  0.50726892     0.02900
C4391       C  0.81899531  0.59044702  0.92458583     0.37500
C4392       C  0.75471208  0.55451226  0.53129414     0.37500
C4393       C  0.80885341  0.57657127  0.53779781     0.35900
C4394       C  0.76763131  0.58300918  0.92382501     0.35900
N4395       N  0.81563468  0.57812282  0.56326843    -0.38900
N4396       N  0.75913511  0.58560464  0.90082619    -0.38900
N4397       N  0.74126957  0.54326388  0.55167088    -0.38300
N4398       N  0.83091196  0.59581912  0.90195914    -0.38300
C4399       C  0.98481549  0.79081952  0.61962939    -0.05000
C4400       C  0.95836966  0.78051637  0.62783981    -0.02100
C4401       C  0.94192246  0.78618476  0.60979955     0.02900
C4402       C  0.95153793  0.80179567  0.58325464    -0.05000
C4403       C  0.97830025  0.81421721  0.57685233    -0.02100
C4404       C  0.99498816  0.80908417  0.59524073     0.02900
C4405       C  0.94740784  0.76261368  0.65341602     0.37500
C4406       C  0.98830206  0.83091091  0.55008674     0.37500
C4407       C  0.52124426  0.82225349  0.59330292     0.35900
C4408       C  0.91466822  0.77502460  0.61777066     0.35900
N4409       N  0.54343515  0.83366799  0.58915838    -0.38900
N4410       N  0.89298687  0.76622700  0.62425710    -0.38900
N4411       N  0.49659412  0.84275888  0.53034587    -0.38300
N4412       N  0.93862314  0.74831783  0.67381076    -0.38300
C4413       C  0.95186996  0.64668192  0.57967126    -0.05000
C4414       C  0.94347512  0.65326710  0.60725201    -0.02100
C4415       C  0.96050326  0.67562273  0.62450875     0.02900
C4416       C  0.98606655  0.69273661  0.61362861    -0.05000
C4417       C  0.99525278  0.68440984  0.58789248    -0.02100
C4418       C  0.97824721  0.66143176  0.57118475     0.02900
C4419       C  0.91656182  0.63804948  0.61716149     0.37500
C4420       C  0.52145116  0.69858886  0.58294464     0.37500
C4421       C  0.98746804  0.65434388  0.54365944     0.35900
C4422       C  0.95084673  0.68078663  0.65310645     0.35900
N4423       N  0.49590006  0.64821047  0.52607673    -0.38900
N4424       N  0.94285373  0.68461227  0.67581615    -0.38900
N4425       N  0.54316157  0.71029954  0.57620239    -0.38300
N4426       N  0.89508371  0.62669620  0.62489861    -0.38300
C4427       C  0.54061596  0.86131713  0.77551732    -0.05000
C4428       C  0.54443058  0.86110218  0.74292041    -0.02100
C4429       C  0.53891050  0.83785926  0.72748583     0.02900
C4430       C  0.53126302  0.81493685  0.74422377    -0.05000
C4431       C  0.52375759  0.81391506  0.77530019    -0.02100
C4432       C  0.52829066  0.83699747  0.79093874     0.02900
C4433       C  0.55452333  0.88456530  0.72456588     0.37500
C4434       C  0.51016253  0.78904041  0.79063985     0.37500
C4435       C  0.51893686  0.83523226  0.82225698     0.35900
C4436       C  0.54043398  0.83734983  0.69392913     0.35900
N4437       N  0.51089016  0.83344457  0.84704876    -0.38900
N4438       N  0.54127121  0.83721126  0.66716710    -0.38900
N4439       N  0.49862143  0.76924245  0.80290864    -0.38300
N4440       N  0.56246784  0.90304251  0.70958107    -0.38300
C4441       C  0.52390746  0.70718316  0.74765298    -0.05000
C4442       C  0.51793676  0.68233298  0.73663127    -0.02100
C4443       C  0.52338179  0.66597443  0.75520991     0.02900
C4444       C  0.53420951  0.67413872  0.78555625    -0.05000
C4445       C  0.53655888  0.69757506  0.79775038    -0.02100
C4446       C  0.53225061  0.71425933  0.77862195     0.02900
C4447       C  0.50848506  0.67458532  0.70509829     0.37500
C4448       C  0.54467521  0.70554383  0.82957372     0.37500
C4449       C  0.53815739  0.73968068  0.79039499     0.35900
C4450       C  0.51980698  0.64190501  0.74156633     0.35900
N4451       N  0.54351172  0.76009633  0.79981512    -0.38900
N4452       N  0.51704792  0.62283888  0.73041626    -0.38900
N4453       N  0.55138868  0.71238209  0.85480106    -0.38300
N4454       N  0.00200040  0.66963284  0.68027766    -0.38300
C4455       C  0.68885244  0.54525058  0.58420058    -0.05000
C4456       C  0.67961151  0.51915188  0.57504873    -0.02100
C4457       C  0.68664938  0.50320023  0.59214527     0.02900
C4458       C  0.70326514  0.51325486  0.61874020    -0.05000
C4459       C  0.70996519  0.53858703  0.62958402    -0.02100
C4460       C  0.70267778  0.55422875  0.61261903     0.02900
C4461       C  0.66459962  0.50918452  0.54659847     0.37500
C4462       C  0.72493546  0.54937421  0.65797429     0.37500
C4463       C  0.71099363  0.58044041  0.62388153     0.35900
C4464       C  0.67640524  0.97670278  0.58270642     0.35900
N4465       N  0.71837780  0.60143613  0.63290491    -0.38900
N4466       N  0.66838779  0.95550755  0.57402460    -0.38900
N4467       N  0.73668725  0.55812817  0.68064228    -0.38300
N4468       N  0.65085585  0.00072199  0.52622967    -0.38300
C4469       C  0.84750059  0.54828567  0.57550492    -0.05000
C4470       C  0.82401925  0.53033654  0.56100216    -0.02100
C4471       C  0.80192716  0.51445851  0.57882928     0.02900
C4472       C  0.80279852  0.51702936  0.61187236    -0.05000
C4473       C  0.82733212  0.53393763  0.62620743    -0.02100
C4474       C  0.84962857  0.54880544  0.60793851     0.02900
C4475       C  0.82230790  0.52915255  0.52733478     0.37500
C4476       C  0.83004006  0.53689210  0.65962608     0.37500
C4477       C  0.87489214  0.56463747  0.62244495     0.35900
C4478       C  0.77807196  0.99618383  0.56266531     0.35900
N4479       N  0.89512410  0.57673546  0.63405537    -0.38900
N4480       N  0.75936302  0.98180171  0.54924689    -0.38900
N4481       N  0.83243936  0.53956840  0.68625486    -0.38300
N4482       N  0.82088258  0.52839332  0.50056335    -0.38300
C4483       C  0.68656156  0.97109975  0.75084536    -0.05000
C4484       C  0.67908370  0.95499416  0.77737758    -0.02100
C4485       C  0.65507893  0.94744181  0.79220674     0.02900
C4486       C  0.63890956  0.95755321  0.78246119    -0.05000
C4487       C  0.64866772  0.97696298  0.75916761    -0.02100
C4488       C  0.67141763  0.98260739  0.74259238     0.02900
C4489       C  0.69559476  0.94524506  0.78914386     0.37500
C4490       C  0.63441433  0.48995562  0.74939025     0.37500
C4491       C  0.67567353  0.49599679  0.71260443     0.35900
C4492       C  0.64702061  0.92844224  0.81677414     0.35900
N4493       N  0.67861540  0.50719278  0.68982009    -0.38900
N4494       N  0.64072052  0.91319436  0.83623171    -0.38900
N4495       N  0.62380204  0.50118293  0.74259210    -0.38300
N4496       N  0.70850141  0.93724013  0.79866918    -0.38300
C4497       C  0.79249455  0.97576153  0.74338531    -0.05000
C4498       C  0.81178731  0.97213727  0.72898315    -0.02100
C4499       C  0.82656413  0.96394102  0.74643843     0.02900
C4500       C  0.82305680  0.96053918  0.77893833    -0.05000
C4501       C  0.80623638  0.96779290  0.79377969    -0.02100
C4502       C  0.79112446  0.97553621  0.77597402     0.02900
C4503       C  0.81503801  0.97500886  0.69565159     0.37500
C4504       C  0.80434782  0.96721241  0.82725731     0.37500
C4505       C  0.77441606  0.48382616  0.79030862     0.35900
C4506       C  0.84334743  0.95651196  0.73016932     0.35900
N4507       N  0.76108858  0.49041736  0.80210718    -0.38900
N4508       N  0.85646283  0.95036039  0.71699028    -0.38900
N4509       N  0.80400616  0.46862338  0.85346850    -0.38300
N4510       N  0.81760234  0.97722914  0.66908391    -0.38300
C4511       C  0.60297922  0.84688967  0.65188442    -0.05000
C4512       C  0.61189333  0.86209168  0.67939697    -0.02100
C4513       C  0.63330455  0.88728171  0.67867598     0.02900
C4514       C  0.64952804  0.89566879  0.65252728    -0.05000
C4515       C  0.63943241  0.88192977  0.62414210    -0.02100
C4516       C  0.61552212  0.85809091  0.62372641     0.02900
C4517       C  0.60085530  0.85193239  0.70946737     0.37500
C4518       C  0.65335559  0.89189449  0.59541669     0.37500
C4519       C  0.60465004  0.84478389  0.59455307     0.35900
C4520       C  0.63814683  0.90453296  0.70498471     0.35900
N4521       N  0.59593449  0.83479255  0.57094706    -0.38900
N4522       N  0.64119764  0.91799245  0.72600519    -0.38900
N4523       N  0.66426408  0.89977401  0.57234234    -0.38300
N4524       N  0.59402531  0.84540896  0.73453356    -0.38300
C4525       C  0.84634719  0.79093730  0.57783860    -0.05000
C4526       C  0.82564728  0.76537396  0.58381781    -0.02100
C4527       C  0.80393347  0.76157416  0.60116379     0.02900
C4528       C  0.80199429  0.78309560  0.61202694    -0.05000
C4529       C  0.82248434  0.80855616  0.60625129    -0.02100
C4530       C  0.84495593  0.81242963  0.59029541     0.02900
C4531       C  0.82573783  0.74246830  0.57158738     0.37500
C4532       C  0.82055081  0.83086094  0.61687477     0.37500
C4533       C  0.86718304  0.83844601  0.58835295     0.35900
C4534       C  0.78284554  0.73523122  0.60627923     0.35900
N4535       N  0.88511801  0.85913423  0.58734845    -0.38900
N4536       N  0.76625294  0.71415085  0.61026540    -0.38900
N4537       N  0.81888672  0.84861457  0.62517549    -0.38300
N4538       N  0.82513924  0.72374648  0.56241298    -0.38300
C4539       C  0.70394728  0.69583306  0.60917323    -0.05000
C4540       C  0.70391197  0.69535725  0.57608090    -0.02100
C4541       C  0.70032013  0.67311499  0.55999705     0.02900
C4542       C  0.69507658  0.65063388  0.57615644    -0.05000
C4543       C  0.69010099  0.64917618  0.60811864    -0.02100
C4544       C  0.69524453  0.67190492  0.62491726     0.02900
C4545       C  0.70763372  0.71744179  0.55784366     0.37500
C4546       C  0.67926326  0.62429786  0.62343738     0.37500
C4547       C  0.69167315  0.67030945  0.65821548     0.35900
C4548       C  0.70170737  0.67313843  0.52640090     0.35900
N4549       N  0.68878414  0.66886346  0.68477360    -0.38900
N4550       N  0.70255688  0.67293389  0.49966619    -0.38900
N4551       N  0.66986117  0.60433727  0.63558016    -0.38300
N4552       N  0.71056225  0.73486646  0.54297203    -0.38300
C4553       C  0.78096014  0.81514887  0.74261933    -0.05000
C4554       C  0.77170975  0.82018867  0.77050133    -0.02100
C4555       C  0.78822577  0.84169485  0.78943318     0.02900
C4556       C  0.81423841  0.85887593  0.78036472    -0.05000
C4557       C  0.82432290  0.85173770  0.75463280    -0.02100
C4558       C  0.80778290  0.82982557  0.73598737     0.02900
C4559       C  0.74481528  0.80336969  0.77949717     0.37500
C4560       C  0.85179595  0.86663978  0.74740730     0.37500
C4561       C  0.81824755  0.82328067  0.70921597     0.35900
C4562       C  0.77779889  0.84622494  0.81771336     0.35900
N4563       N  0.82677561  0.81799515  0.68808457    -0.38900
N4564       N  0.76934484  0.84944646  0.84039522    -0.38900
N4565       N  0.87370405  0.87833182  0.74155300    -0.38300
N4566       N  0.72332477  0.78998700  0.78633694    -0.38300
C4567       C  0.63499320  0.69398807  0.78240125    -0.05000
C4568       C  0.63023836  0.70847501  0.76018542    -0.02100
C4569       C  0.65057694  0.72689556  0.74175147     0.02900
C4570       C  0.67514501  0.72798538  0.74116761    -0.05000
C4571       C  0.68040144  0.71478668  0.76496661    -0.02100
C4572       C  0.66092645  0.69959603  0.78681753     0.02900
C4573       C  0.60483677  0.70624438  0.75774987     0.37500
C4574       C  0.70626718  0.71822456  0.76871049     0.37500
C4575       C  0.66859948  0.69282718  0.81548324     0.35900
C4576       C  0.64633544  0.74601370  0.72580363     0.35900
N4577       N  0.67621737  0.68957714  0.83874064    -0.38900
N4578       N  0.64299963  0.76160966  0.71400814    -0.38900
N4579       N  0.72689043  0.72093164  0.77183348    -0.38300
N4580       N  0.58508981  0.70552839  0.75498215    -0.38300
C4581       C  0.75435785  0.85640247  0.63105806    -0.05000
C4582       C  0.76756088  0.87425022  0.65526684    -0.02100
C4583       C  0.76305344  0.89504325  0.66029984     0.02900
C4584       C  0.74935612  0.90095225  0.63789503    -0.05000
C4585       C  0.74240681  0.88702390  0.60936986    -0.02100
C4586       C  0.74481146  0.86448331  0.60603185     0.02900
C4587       C  0.78413857  0.87000190  0.67647014     0.37500
C4588       C  0.73061645  0.89424178  0.58475487     0.37500
C4589       C  0.73759914  0.84976337  0.57724160     0.35900
C4590       C  0.76996008  0.90783883  0.69030971     0.35900
N4591       N  0.73253889  0.83828067  0.55403594    -0.38900
N4592       N  0.77495280  0.91618378  0.71525660    -0.38900
N4593       N  0.72125706  0.89995870  0.56498926    -0.38300
N4594       N  0.79755304  0.86695451  0.69335382    -0.38300
C4595       C  0.60293174  0.75318696  0.63445362    -0.05000
C4596       C  0.61880301  0.76831433  0.60958345    -0.02100
C4597       C  0.64399203  0.77190177  0.60623802     0.02900
C4598       C  0.65219237  0.75836380  0.62546678    -0.05000
C4599       C  0.63392838  0.73821294  0.64413192    -0.02100
C4600       C  0.60942974  0.73604197  0.64938181     0.02900
C4601       C  0.60962609  0.78015871  0.58731211     0.37500
C4602       C  0.64077330  0.72030898  0.65832673     0.37500
C4603       C  0.59083138  0.71602636  0.66948417     0.35900
C4604       C  0.66166496  0.79007351  0.58376745     0.35900
N4605       N  0.57571804  0.69986676  0.68515899    -0.38900
N4606       N  0.67538804  0.80452575  0.56552336    -0.38900
N4607       N  0.64627506  0.70588897  0.66923729    -0.38300
N4608       N  0.60216915  0.78895912  0.56882135    -0.38300
loop_ 
_geom_bond_atom_site_label_1 
_geom_bond_atom_site_label_2 
_geom_bond_distance 
_geom_bond_site_symmetry_2 
_ccdc_geom_bond_type 
O1           C16   1.258       .  A
O1           Al9   1.903       .  S
C2           O12   1.261       .  A
C2            O3   1.258       .  A
C2          C521   1.492       .  S
O3           Al5   1.896       .  S
O4            C6   1.255       .  A
O4           Al5   1.861       .  S
Al5          O13   1.861       .  S
Al5          O15   1.915       .  S
Al5          O14   1.769       .  S
C6           O19   1.261       .  A
C6          C549   1.486       .  S
O7           C17   1.263       .  A
O7           Al9   1.895       .  S
O8           C21   1.266       .  A
O8          Al18   1.921       .  S
Al9          O22   1.874       .  S
Al9          O19   1.929       .  S
Al9          O14   1.788       .  S
O10          C17   1.270       .  A
O10         Al18   1.932       .  S
O11          C20   1.272       .  A
O11         Al18   1.964       .  S
O12         Al18   1.914       .  S
O13          C20   1.254       .  A
O14         Al18   1.784       .  S
O15          C16   1.263       .  A
C16         C566   1.475       .  S
C17         C496   1.491       .  S
C20         C538   1.515       .  S
C21          O22   1.255       .  A
C21         C507   1.502       .  S
O23          C38   1.258       .  A
O23         Al31   1.899       .  S
C24          O25   1.257       .  A
C24        O1186   1.264       .  A
C24         C451   1.506       .  S
O25         Al27   1.894       .  S
O26          C28   1.260       .  A
O26         Al27   1.876       .  S
Al27         O35   1.863       .  S
Al27         O37   1.901       .  S
Al27         O36   1.775       .  S
C28          O41   1.263       .  A
C28         C482   1.499       .  S
O29        C1191   1.257       .  A
O29         Al31   1.885       .  S
O30          C43   1.265       .  A
O30         Al40   1.925   1_545  S
Al31         O44   1.892       .  S
Al31         O41   1.927       .  S
Al31         O36   1.780       .  S
O32          C39   1.268   1_545  A
O32         Al40   1.938   1_545  S
O33        C1194   1.269       .  A
O33         Al40   1.958       .  S
O34        C1176   1.264       .  A
O34         Al40   1.926       .  S
O35          C42   1.256       .  A
O36       Al1192   1.791       .  S
O37          C38   1.258       .  A
C38         C552   1.479       .  S
C39        O1181   1.257       .  A
C39         C426   1.515   1_565  S
Al40       O1188   1.790       .  S
C42        O1185   1.269       .  A
C42         C465   1.484       .  S
C43        O1196   1.260   1_545  A
C43         C440   1.512       .  S
O44        C1195   1.260       .  A
O45          C60   1.266       .  A
O45         Al53   1.926       .  S
C46          O47   1.254       .  A
C46        O2360   1.258       .  A
C46         C409   1.487       .  S
O47         Al49   1.886       .  S
O48          C50   1.268       .  A
O48         Al49   1.929       .  S
Al49         O57   1.888       .  S
Al49         O59   1.894       .  S
Al49         O58   1.781       .  S
C50          O63   1.258       .  A
C50         C563   1.499       .  S
O51        C2365   1.263   1_455  A
O51         Al53   1.898       .  S
O52          C65   1.257       .  A
O52         Al62   1.908       .  S
Al53         O66   1.897       .  S
Al53         O63   1.895       .  S
Al53         O58   1.790       .  S
O54          C61   1.265       .  A
O54         Al62   1.905       .  S
O55        C2368   1.261       .  A
O55         Al62   1.923       .  S
O56        C2350   1.258       .  A
O56         Al62   1.913       .  S
O57          C64   1.261       .  A
O58       Al2366   1.798       .  S
O59          C60   1.258       .  A
C60         C479   1.488       .  S
C61        O2355   1.264       .  A
C61         C384   1.510       .  S
Al62       O2362   1.797       .  S
C64        O2359   1.261       .  A
C64         C398   1.486       .  S
C65        O2370   1.256       .  A
C65         C367   1.496       .  S
O66        C2369   1.256   1_455  A
O67          C82   1.259       .  A
O67         Al75   1.926       .  S
C68          O78   1.264       .  A
C68          O69   1.254       .  A
C68         C423   1.494       .  S
O69         Al71   1.881       .  S
O70         C648   1.265   1_554  A
O70         Al71   1.883       .  S
Al71         O79   1.875       .  S
Al71         O81   1.863       .  S
Al71         O80   1.768       .  S
C72          O85   1.260       .  A
C72         O646   1.264       .  A
C72         C356   1.495       .  S
O73          C83   1.255       .  A
O73         Al75   1.877       .  S
O74          C87   1.267       .  A
O74        Al660   1.936       .  S
Al75         O88   1.876       .  S
Al75         O85   1.906       .  S
Al75        O656   1.794       .  S
O76          C83   1.260       .  A
O76        Al660   1.907       .  S
O77          C86   1.263       .  A
O77         Al84   1.928       .  S
O78         Al84   1.929       .  S
O79          C86   1.261       .  A
O80         Al84   1.790       .  S
O80        Al651   1.792   1_554  S
O81         C658   1.253   1_554  A
C82         O657   1.252       .  A
C82         C339   1.485       .  S
C83         C328   1.507       .  S
Al84        O650   1.921   1_554  S
Al84        O652   1.909   1_554  S
C86         C510   1.477       .  S
C87          O88   1.257       .  A
C87         C314   1.516       .  S
O89         C104   1.262       .  A
O89         Al97   1.919       .  S
C90         O100   1.261       .  A
C90          O91   1.251       .  A
C90         C381   1.490       .  S
O91         Al93   1.863       .  S
O92         C670   1.263   1_554  A
O92         Al93   1.902       .  S
Al93        O101   1.869       .  S
Al93        O103   1.892       .  S
Al93        O102   1.782       .  S
C94         O107   1.259       .  A
C94         O668   1.257       .  A
C94         C297   1.495       .  S
O95         C105   1.264       .  A
O95         Al97   1.913       .  S
O96         C109   1.260       .  A
O96        Al682   1.918       .  S
Al97        O110   1.877       .  S
Al97        O107   1.914       .  S
Al97        O678   1.796       .  S
O98         C105   1.261       .  A
O98        Al682   1.885       .  S
O99         C108   1.264       .  A
O99        Al106   1.936       .  S
O100       Al106   1.923       .  S
O101        C108   1.257       .  A
O102       Al106   1.796       .  S
O102       Al673   1.784   1_554  S
O103        C680   1.255   1_554  A
C104        O679   1.255       .  A
C104        C353   1.487       .  S
C105        C272   1.482       .  S
Al106       O672   1.930   1_554  S
Al106       O674   1.900   1_554  S
C108        C437   1.482       .  S
C109        O110   1.253       .  A
C109        C286   1.509       .  S
O111        C126   1.261       .  A
O111       Al119   1.912       .  S
C112        O122   1.264       .  A
C112        O113   1.256       .  A
C112        C493   1.501       .  S
O113       Al115   1.898       .  S
O114        C692   1.258   1_554  A
O114       Al115   1.882       .  S
Al115       O123   1.858       .  S
Al115       O125   1.872   1_554  S
Al115       O124   1.772   1_554  S
C116        O129   1.261       .  A
C116        O690   1.256       .  A
C116        C342   1.471       .  S
O117        C127   1.258       .  A
O117       Al119   1.891       .  S
O118        C131   1.264       .  A
O118       Al704   1.908       .  S
Al119       O132   1.908       .  S
Al119       O129   1.924       .  S
Al119       O700   1.789       .  S
O120        C127   1.266       .  A
O120       Al704   1.923       .  S
O121        C130   1.268       .  A
O121       Al128   1.953       .  S
O122       Al128   1.923       .  S
O123        C130   1.253       .  A
O124       Al128   1.787   1_556  S
O124       Al695   1.793       .  S
O125        C702   1.254       .  A
C126        O701   1.258       .  A
C126        C300   1.472       .  S
C127        C244   1.508       .  S
Al128       O694   1.908   1_554  S
Al128       O696   1.920   1_554  S
C130        C370   1.477       .  S
C131        O132   1.262       .  A
C131        C255   1.479       .  S
O133        C148   1.266       .  A
O133       Al141   1.944       .  S
C134        O144   1.268       .  A
C134        O135   1.252       .  A
C134        C241   1.479       .  S
O135       Al137   1.860       .  S
O136        C138   1.261       .  A
O136       Al137   1.908       .  S
Al137       O145   1.929       .  S
Al137       O147   1.885       .  S
Al137       O146   1.775       .  S
C138        O151   1.257       .  A
C138        C227   1.473       .  S
O139        C149   1.268       .  A
O139       Al141   1.935       .  S
O140        C153   1.269       .  A
O140       Al150   1.949       .  S
Al141       O154   1.882       .  S
Al141       O151   1.891       .  S
Al141       O146   1.784       .  S
O142        C149   1.263       .  A
O142       Al150   1.902       .  S
O143        C152   1.262       .  A
O143       Al150   1.907       .  S
O144       Al150   1.956       .  S
O145        C152   1.263       .  A
O146       Al150   1.784       .  S
O147        C148   1.259       .  A
C148       C1365   1.485       .  S
C149        C524   1.504       .  S
C152        C283   1.487       .  S
C153        O154   1.258       .  A
C153        C468   1.494       .  S
O155        C170   1.259       .  A
O155       Al163   1.903       .  S
C156        O166   1.261       .  A
C156        O157   1.259       .  A
C156        C325   1.493       .  S
O157       Al159   1.896       .  S
O158        C160   1.257       .  A
O158       Al159   1.871       .  S
Al159       O167   1.867       .  S
Al159       O169   1.903       .  S
Al159       O168   1.771       .  S
C160        O173   1.261       .  A
C160       C1351   1.494       .  S
O161        C171   1.260       .  A
O161       Al163   1.885       .  S
O162        C175   1.265       .  A
O162       Al172   1.926       .  S
Al163       O176   1.888       .  S
Al163       O173   1.933       .  S
Al163       O168   1.784       .  S
O164        C171   1.270       .  A
O164       Al172   1.944       .  S
O165        C174   1.269       .  A
O165       Al172   1.952       .  S
O166       Al172   1.907       .  S
O167        C174   1.256       .  A
O168       Al172   1.790       .  S
O169        C170   1.261       .  A
C170       C2534   1.472   1_455  S
C171        C454   1.519       .  S
C174        C258   1.505       .  S
C175        O176   1.259       .  A
C175        C395   1.506       .  S
O177        C192   1.266       .  A
O177       Al185   1.927       .  S
C178        O188   1.263       .  A
C178        O179   1.255       .  A
C178        C269   1.503       .  S
O179       Al181   1.904       .  S
O180        C182   1.259       .  A
O180       Al181   1.884       .  S
Al181       O189   1.845       .  S
Al181       O191   1.885       .  S
Al181       O190   1.769       .  S
C182        O195   1.268       .  A
C182       C2520   1.483   1_455  S
O183        C193   1.261       .  A
O183       Al185   1.899       .  S
O184        C197   1.267       .  A
O184       Al194   1.929       .  S
Al185       O198   1.933       .  S
Al185       O195   1.950       .  S
Al185       O190   1.780       .  S
O186        C193   1.269       .  A
O186       Al194   1.935       .  S
O187        C196   1.273       .  A
O187       Al194   1.973       .  S
O188       Al194   1.931       .  S
O189        C196   1.253       .  A
O190       Al194   1.782       .  S
O191        C192   1.256       .  A
C192        C202   1.482       .  S
C193        C412   1.510       .  S
C196        C311   1.482       .  S
C197        O198   1.268       .  A
C197        C535   1.501       .  S
C199       C1312   1.494   1_545  S
C199        C200   1.407       .  A
C199        C204   1.414       .  A
C200        C201   1.400       .  A
C200        C205   1.452       .  S
C201        C202   1.416       .  A
C201        C208   1.448       .  S
C202        C203   1.415       .  A
C203        C204   1.418       .  A
C203        C206   1.449       .  S
C204       C1359   1.447       .  S
C205        N212   1.156       .  T
C206        N211   1.157       .  T
C207       C1356   1.447       .  S
C207        N209   1.157       .  T
C208        N210   1.156       .  T
C213       C1300   1.483   1_545  S
C213        C214   1.413       .  A
C213        C218   1.413       .  A
C214        C215   1.419       .  A
C214        C219   1.449       .  S
C215        C216   1.413       .  A
C215        C222   1.448       .  S
C216       C2486   1.483       .  S
C216        C217   1.412       .  A
C217        C218   1.404       .  A
C217        C220   1.453       .  S
C218        C221   1.453   1_545  S
C219        N226   1.157       .  T
C220       N2529   1.157       .  T
C221       N1375   1.157       .  T
C222        N224   1.157       .  T
N223       C1373   1.157       .  T
N225       C2524   1.157       .  T
C227        C228   1.408       .  A
C227        C232   1.414       .  A
C228        C229   1.408       .  A
C228        C233   1.451       .  S
C229        C230   1.411       .  A
C229        C236   1.449       .  S
C230       C2474   1.473       .  S
C230        C231   1.405       .  A
C231        C232   1.409       .  A
C231       C2538   1.448       .  S
C232        C235   1.451       .  S
C233        N240   1.157       .  T
C234       C2535   1.448       .  S
C234        N239   1.156   1_655  T
C235        N237   1.157       .  T
C236        N238   1.157       .  T
C241        C242   1.408       .  A
C241        C246   1.407       .  A
C242        C243   1.410       .  A
C242        C247   1.451       .  S
C243        C244   1.422       .  A
C243        C250   1.452       .  S
C244        C245   1.428       .  A
C245        C246   1.415       .  A
C245        C248   1.452       .  S
C246        C249   1.452       .  S
C247        N254   1.157       .  T
C248        N253   1.158       .  T
C249        N251   1.157       .  T
C250        N252   1.157       .  T
C255        C256   1.408       .  A
C255        C260   1.406       .  A
C256       C2561   1.415       .  A
C256        C261   1.451       .  S
C257        C258   1.420       .  A
C257       C2560   1.415   1_455  A
C257        C264   1.449       .  S
C258        C259   1.428   1_455  A
C259       C2564   1.409       .  A
C259        C262   1.453       .  S
C260       C2563   1.410       .  A
C260        C263   1.453       .  S
C261        N268   1.157       .  T
C262        N267   1.158   1_655  T
C263        N265   1.157       .  T
C264        N266   1.158       .  T
C269        C270   1.419       .  A
C269       C2578   1.425   1_455  A
C270       C2575   1.419   1_455  A
C270        C275   1.449       .  S
C271        C272   1.410       .  A
C271       C2574   1.418       .  A
C271        C278   1.450       .  S
C272        C273   1.409       .  A
C273        C274   1.406       .  A
C273        C276   1.456       .  S
C274       C2573   1.425       .  A
C274       C2581   1.453       .  S
C275        N282   1.157       .  T
C276        N281   1.157       .  T
C277       C2578   1.452   1_455  S
C277        N279   1.158       .  T
C278        N280   1.157       .  T
C283        C284   1.409       .  A
C283       C1440   1.406       .  A
C284       C1437   1.419       .  A
C284        C289   1.449       .  S
C285        C286   1.423       .  A
C285       C1436   1.419   1_545  A
C285        C292   1.450       .  S
C286        C287   1.427       .  A
C287        C288   1.409       .  A
C287        C290   1.454       .  S
C288       C1435   1.406   1_545  A
C288        C291   1.452       .  S
C289        N296   1.157       .  T
C290        N295   1.157       .  T
C291        N293   1.156       .  T
C292       N1446   1.158   1_545  T
N294       C1444   1.158       .  T
C297        C298   1.420       .  A
C297        C878   1.418       .  A
C298        C299   1.413       .  A
C298        C303   1.450       .  S
C299        C300   1.409       .  A
C299        C306   1.451       .  S
C300        C877   1.406       .  A
C301        C302   1.410       .  A
C301        C876   1.409       .  A
C301        C304   1.451   1_556  S
C302        C873   1.418       .  A
C302        C305   1.449   1_556  S
C303        N310   1.157       .  T
C304        N309   1.157       .  T
C305        N307   1.156       .  T
C306        N308   1.157       .  T
C311        C312   1.410       .  A
C311        C316   1.408       .  A
C312        C313   1.420       .  A
C312        C317   1.451       .  S
C313        C314   1.423       .  A
C313        C320   1.449       .  S
C314        C315   1.429       .  A
C315        C316   1.407       .  A
C315        C318   1.454       .  S
C316        C319   1.455       .  S
C317        N324   1.157       .  T
C318        N323   1.157       .  T
C319        N321   1.158       .  T
C320        N898   1.158       .  T
N322        C896   1.158   1_554  T
C325        C330   1.413       .  A
C325       C1478   1.412       .  A
C326        C327   1.413   1_565  A
C326       C1477   1.411       .  A
C326        C331   1.450       .  S
C327        C328   1.426       .  A
C327        C334   1.453       .  S
C328       C1481   1.423       .  A
C329        C330   1.411       .  A
C329       C1480   1.423       .  A
C329        C332   1.452       .  S
C330        C333   1.453       .  S
C331        N338   1.157       .  T
C332        N913   1.158       .  T
C333        N335   1.157       .  T
C334        N336   1.157       .  T
N337        C908   1.158   1_554  T
C339        C340   1.415       .  A
C339        C344   1.416       .  A
C340        C917   1.419       .  A
C340        C921   1.448       .  S
C341        C916   1.418       .  A
C341        C918   1.412       .  A
C341        C348   1.449       .  S
C342        C343   1.404       .  A
C342        C917   1.412       .  A
C343        C344   1.397       .  A
C343        C346   1.453       .  S
C344        C347   1.451       .  S
C345        C916   1.448       .  S
C345        N352   1.158       .  T
C346        N351   1.156       .  T
C347        N349   1.155       .  T
C348        N350   1.157       .  T
C353        C354   1.413       .  A
C353        C934   1.421       .  A
C354        C355   1.417       .  A
C354        C359   1.450       .  S
C355        C356   1.422       .  A
C355        C362   1.449       .  S
C356        C933   1.405       .  A
C357        C358   1.398       .  A
C357        C932   1.406   1_554  A
C357        C360   1.454       .  S
C358        C929   1.420   1_554  A
C358        C361   1.449       .  S
C359        N366   1.157       .  T
C360        N365   1.157       .  T
C361        N363   1.157       .  T
C362        N364   1.157       .  T
C367        C368   1.416       .  A
C367        C372   1.420       .  A
C368        C369   1.412       .  A
C368        C373   1.451       .  S
C369        C370   1.413       .  A
C369        C376   1.453       .  S
C370        C371   1.405       .  A
C371        C372   1.411       .  A
C371        C374   1.451       .  S
C372       C2679   1.448       .  S
C373        N380   1.158       .  T
C374       N2683   1.158       .  T
C375       C2676   1.448   1_455  S
C375        N377   1.156       .  T
C376        N378   1.157       .  T
N379       C2678   1.157       .  T
C381        C382   1.414       .  A
C381        C386   1.411       .  A
C382        C383   1.408       .  A
C382        C387   1.455       .  S
C383        C384   1.425       .  A
C383        C390   1.454       .  S
C384        C385   1.426       .  A
C385        C386   1.416       .  A
C385       C2692   1.451       .  S
C386        C389   1.451       .  S
C387        N394   1.157       .  T
C388       C2689   1.452   1_455  S
C388        N393   1.157       .  T
C389       N2695   1.158       .  T
C390        N392   1.158       .  T
N391       C2693   1.158       .  T
C395        C396   1.426       .  A
C395        C400   1.422       .  A
C396        C397   1.405       .  A
C396        C401   1.454       .  S
C397        C398   1.405       .  A
C397        C404   1.452       .  S
C398        C399   1.408       .  A
C399        C400   1.420       .  A
C399        C402   1.448       .  S
C400        C403   1.447       .  S
C401        N408   1.157       .  T
C402        N407   1.157   1_455  T
C403        N405   1.157       .  T
C404        N406   1.157       .  T
C409        C410   1.409       .  A
C409        C414   1.410       .  A
C410        C411   1.417       .  A
C410        C415   1.452       .  S
C411        C412   1.428       .  A
C411        C418   1.451       .  S
C412        C413   1.421       .  A
C413        C414   1.412       .  A
C413        C416   1.450       .  S
C414        C417   1.452       .  S
C415       N2726   1.158       .  T
C416        N421   1.157       .  T
C417        N419   1.156       .  T
C418        N420   1.157       .  T
N422       C2719   1.158       .  T
C423        C424   1.410       .  A
C423        C428   1.416       .  A
C424        C425   1.416       .  A
C424        C429   1.453       .  S
C425        C426   1.430       .  A
C425       C1584   1.451   1_545  S
C426        C427   1.422       .  A
C427        C428   1.412       .  A
C427        C430   1.453       .  S
C428        C431   1.453       .  S
C429       N1588   1.157       .  T
C430        N435   1.157       .  T
C431        N433   1.158       .  T
C432       C1577   1.451       .  S
C432        N434   1.158       .  T
N436       C1581   1.157       .  T
C437        C438   1.404       .  A
C437        C442   1.406       .  A
C438        C439   1.408       .  A
C438        C443   1.455       .  S
C439        C440   1.430       .  A
C439       C1598   1.453       .  S
C440        C441   1.426       .  A
C441        C442   1.419       .  A
C441        C444   1.450       .  S
C442        C445   1.450       .  S
C443        N450   1.157       .  T
C444        N449   1.158       .  T
C445        N447   1.157       .  T
C446       C1591   1.453       .  S
C446        N448   1.157       .  T
C451        C452   1.420       .  A
C451        C456   1.414       .  A
C452        C453   1.417       .  A
C452        C457   1.453       .  S
C453        C454   1.424       .  A
C453        C460   1.452       .  S
C454        C455   1.428       .  A
C455        C456   1.416       .  A
C455       C1610   1.454       .  S
C456       C1611   1.449       .  S
C457        N464   1.157       .  T
C458       C1607   1.454       .  S
C458        N463   1.157       .  T
C459       C1608   1.448       .  S
C459        N461   1.156   1_565  T
C460        N462   1.158       .  T
C465        C466   1.410       .  A
C465        C470   1.410       .  A
C466        C467   1.411       .  A
C466        C471   1.453       .  S
C467        C468   1.419       .  A
C467        C474   1.452       .  S
C468        C469   1.415       .  A
C469        C470   1.417       .  A
C469        C472   1.450       .  S
C470       C1625   1.448       .  S
C471        N478   1.158       .  T
C472       N1629   1.158       .  T
C473       C1622   1.448       .  S
C473        N475   1.157       .  T
C474        N476   1.157       .  T
N477       C1624   1.157       .  T
C479        C480   1.417       .  A
C479        C484   1.414       .  A
C480        C481   1.398       .  A
C480        C485   1.450       .  S
C481        C482   1.410       .  A
C481        C488   1.450       .  S
C482        C483   1.420       .  A
C483        C484   1.419       .  A
C483        C486   1.449       .  S
C484        C487   1.447       .  S
C485        N492   1.157       .  T
C486        N491   1.157       .  T
C487        N489   1.157       .  T
C488        N490   1.155       .  T
C493        C494   1.424       .  A
C493        C498   1.417       .  A
C494        C495   1.409       .  A
C494        C499   1.454       .  S
C495        C496   1.413       .  A
C495        C502   1.454       .  S
C496        C497   1.414       .  A
C497        C498   1.416       .  A
C497        C500   1.452       .  S
C498        C501   1.449       .  S
C499        N506   1.157       .  T
C500        N505   1.157       .  T
C501        N503   1.157       .  T
C502        N504   1.158       .  T
C507        C508   1.430       .  A
C507        C512   1.421       .  A
C508        C509   1.402       .  A
C508        C513   1.454       .  S
C509        C510   1.403       .  A
C509        C516   1.454       .  S
C510        C511   1.409       .  A
C511        C512   1.416       .  A
C511        C514   1.449       .  S
C512        C515   1.451       .  S
C513        N520   1.158       .  T
C514        N519   1.158       .  T
C515        N517   1.157       .  T
C516        N518   1.155   1_554  T
C521        C522   1.413       .  A
C521        C526   1.412       .  A
C522        C523   1.413       .  A
C522        C527   1.453       .  S
C523        C524   1.420       .  A
C523        C530   1.451       .  S
C524        C525   1.421       .  A
C525        C526   1.415       .  A
C525        C528   1.451       .  S
C526        C529   1.450       .  S
C527        N534   1.158       .  T
C528        N533   1.157       .  T
C529        N531   1.157       .  T
C530        N532   1.157       .  T
C535        C536   1.410       .  A
C535        C540   1.412       .  A
C536        C537   1.411       .  A
C536        C541   1.447       .  S
C537        C538   1.425       .  A
C537        C544   1.453       .  S
C538        C539   1.421       .  A
C539        C540   1.421       .  A
C539        C542   1.450       .  S
C540        C543   1.444       .  S
C541        N548   1.155       .  T
C542        N547   1.158       .  T
C543        N545   1.156       .  T
C544        N546   1.157       .  T
C549        C550   1.405       .  A
C549        C554   1.411       .  A
C550        C551   1.397       .  A
C550        C555   1.452       .  S
C551        C552   1.415       .  A
C551        C558   1.448       .  S
C552        C553   1.417       .  A
C553        C554   1.415       .  A
C553        C556   1.450       .  S
C554        C557   1.448       .  S
C555        N562   1.156       .  T
C556        N561   1.157       .  T
C557        N559   1.158       .  T
C558        N560   1.157       .  T
C563        C564   1.423       .  A
C563        C568   1.414       .  A
C564        C565   1.408       .  A
C564        C569   1.447       .  S
C565        C566   1.400       .  A
C565        C572   1.449       .  S
C566        C567   1.408       .  A
C567        C568   1.414       .  A
C567        C570   1.450       .  S
C568        C571   1.448       .  S
C569        N576   1.156       .  T
C570        N575   1.157       .  T
C571        N573   1.157       .  T
C572        N574   1.157       .  T
O577        C592   1.259       .  A
O577       Al585   1.902       .  S
C578        O588   1.263       .  A
C578        O579   1.260       .  A
C578       C1097   1.487       .  S
O579       Al581   1.890       .  S
O580        C582   1.255       .  A
O580       Al581   1.866       .  S
Al581       O589   1.859       .  S
Al581       O591   1.914       .  S
Al581       O590   1.761       .  S
C582        O595   1.261       .  A
C582       C1125   1.486       .  S
O583        C593   1.262       .  A
O583       Al585   1.886       .  S
O584        C597   1.265       .  A
O584       Al594   1.924       .  S
Al585       O598   1.887       .  S
Al585       O595   1.931       .  S
Al585       O590   1.782       .  S
O586        C593   1.273       .  A
O586       Al594   1.944       .  S
O587        C596   1.270       .  A
O587       Al594   1.959       .  S
O588       Al594   1.912       .  S
O589        C596   1.254       .  A
O590       Al594   1.782       .  S
O591        C592   1.264       .  A
C592       C1142   1.472       .  S
C593       C1072   1.487       .  S
C596       C1114   1.510       .  S
C597        O598   1.258       .  A
C597       C1083   1.503       .  S
O599        C614   1.265       .  A
O599       Al607   1.935       .  S
C600       O1762   1.268       .  A
C600        O601   1.255       .  A
C600       C1027   1.494       .  S
O601       Al603   1.859       .  S
O602        C604   1.262       .  A
O602       Al603   1.902       .  S
Al603       O611   1.910       .  S
Al603       O613   1.865       .  S
Al603       O612   1.771       .  S
C604        O617   1.257       .  A
C604       C1058   1.481       .  S
O605       C1767   1.264       .  A
O605       Al607   1.918       .  S
O606        C619   1.268       .  A
O606       Al616   1.939   1_545  S
Al607       O620   1.883       .  S
Al607       O617   1.905       .  S
Al607       O612   1.790       .  S
O608        C615   1.263       .  A
O608       Al616   1.906   1_545  S
O609       C1770   1.263       .  A
O609       Al616   1.923       .  S
O610       C1752   1.269       .  A
O610       Al616   1.955       .  S
O611        C618   1.261       .  A
O612      Al1768   1.788       .  S
O613        C614   1.256       .  A
C614       C1128   1.500       .  S
C615       O1757   1.264   1_545  A
C615       C1002   1.498       .  S
Al616      O1764   1.788       .  S
C618       O1761   1.262       .  A
C618       C1041   1.489       .  S
C619       O1772   1.257   1_545  A
C619       C1016   1.494       .  S
O620       C1771   1.258       .  A
O621        C636   1.265       .  A
O621       Al629   1.920       .  S
C622       O2936   1.260       .  A
C622        O623   1.258       .  A
C622        C985   1.494       .  S
O623       Al625   1.896       .  S
O624        C626   1.266       .  A
O624       Al625   1.922       .  S
Al625       O633   1.891       .  S
Al625       O635   1.902       .  S
Al625       O634   1.777       .  S
C626        O639   1.259       .  A
C626       C1139   1.496       .  S
O627       C2941   1.262       .  A
O627       Al629   1.898       .  S
O628        C641   1.259       .  A
O628       Al638   1.911       .  S
Al629       O642   1.909       .  S
Al629       O639   1.900       .  S
Al629       O634   1.791       .  S
O630        C637   1.262       .  A
O630       Al638   1.892       .  S
O631       C2944   1.260       .  A
O631       Al638   1.920       .  S
O632       C2926   1.258       .  A
O632       Al638   1.917       .  S
O633        C640   1.261       .  A
O634      Al2942   1.794       .  S
O635        C636   1.260       .  A
C636       C1055   1.489       .  S
C637       O2931   1.263       .  A
C637        C960   1.506       .  S
Al638      O2938   1.796       .  S
C640       O2935   1.260       .  A
C640        C974   1.487       .  S
C641       O2946   1.254       .  A
C641        C943   1.495       .  S
O642       C2945   1.259       .  A
O643        C658   1.258       .  A
O643       Al651   1.920       .  S
C644        O654   1.266       .  A
C644        O645   1.252       .  A
C644        C999   1.503       .  S
O645       Al647   1.867       .  S
O646       Al647   1.887       .  S
Al647       O655   1.878       .  S
Al647       O657   1.863       .  S
Al647       O656   1.770       .  S
C648        O661   1.261       .  A
C648        C932   1.494       .  S
O649        C659   1.256       .  A
O649       Al651   1.883       .  S
O650        C663   1.265       .  A
Al651       O664   1.883       .  S
Al651       O661   1.909       .  S
O652        C659   1.260       .  A
O653        C662   1.262       .  A
O653       Al660   1.920       .  S
O654       Al660   1.942       .  S
O655        C662   1.261       .  A
O656       Al660   1.797       .  S
C658        C915   1.485       .  S
C659        C904   1.508       .  S
C662       C1086   1.470       .  S
C663        O664   1.259       .  A
C663        C890   1.510       .  S
O665        C680   1.261       .  A
O665       Al673   1.914       .  S
C666        O676   1.258       .  A
C666        O667   1.247       .  A
C666        C957   1.487       .  S
O667       Al669   1.844       .  S
O668       Al669   1.886       .  S
Al669       O677   1.867       .  S
Al669       O679   1.887       .  S
Al669       O678   1.789       .  S
C670        O683   1.263       .  A
C670        C873   1.503       .  S
O671        C681   1.264       .  A
O671       Al673   1.908       .  S
O672        C685   1.264       .  A
Al673       O686   1.877       .  S
Al673       O683   1.917       .  S
O674        C681   1.264       .  A
O675        C684   1.259       .  A
O675       Al682   1.913       .  S
O676       Al682   1.916       .  S
O677        C684   1.256       .  A
O678       Al682   1.807       .  S
C680        C929   1.484       .  S
C681        C848   1.487       .  S
C684       C1013   1.473       .  S
C685        O686   1.255       .  A
C685        C862   1.508       .  S
O687        C702   1.263       .  A
O687       Al695   1.925       .  S
C688        O698   1.263       .  A
C688        O689   1.257       .  A
C688       C1069   1.497       .  S
O689       Al691   1.900       .  S
O690       Al691   1.882       .  S
Al691       O699   1.865       .  S
Al691       O701   1.881       .  S
Al691       O700   1.770       .  S
C692        O705   1.261       .  A
C692        C918   1.471       .  S
O693        C703   1.261       .  A
O693       Al695   1.906       .  S
O694        C707   1.264       .  A
Al695       O708   1.908       .  S
Al695       O705   1.920       .  S
O696        C703   1.264       .  A
O697        C706   1.268       .  A
O697       Al704   1.951       .  S
O698       Al704   1.918       .  S
O699        C706   1.255       .  A
O700       Al704   1.782       .  S
C702        C876   1.479       .  S
C703        C820   1.513       .  S
C706        C946   1.478       .  S
C707        O708   1.263       .  A
C707        C831   1.480       .  S
O709        C724   1.267       .  A
O709       Al717   1.942       .  S
C710        O720   1.269       .  A
C710        O711   1.251       .  A
C710        C817   1.479       .  S
O711       Al713   1.858       .  S
O712        C714   1.260       .  A
O712       Al713   1.907       .  S
Al713       O721   1.931       .  S
Al713       O723   1.881       .  S
Al713       O722   1.770       .  S
C714        O727   1.258       .  A
C714        C803   1.478       .  S
O715        C725   1.270       .  A
O715       Al717   1.940       .  S
O716        C729   1.270       .  A
O716       Al726   1.951       .  S
Al717       O730   1.890       .  S
Al717       O727   1.897       .  S
Al717       O722   1.782       .  S
O718        C725   1.260       .  A
O718       Al726   1.885       .  S
O719        C728   1.262       .  A
O719       Al726   1.905       .  S
O720       Al726   1.960       .  S
O721        C728   1.264       .  A
O722       Al726   1.781       .  S
O723        C724   1.259       .  A
C724       C1941   1.481       .  S
C725       C1100   1.497       .  S
C728        C859   1.484       .  S
C729        O730   1.258       .  A
C729       C1044   1.508       .  S
O731        C746   1.259       .  A
O731       Al739   1.914       .  S
C732        O742   1.260       .  A
C732        O733   1.257       .  A
C732        C901   1.496       .  S
O733       Al735   1.886       .  S
O734        C736   1.256       .  A
O734       Al735   1.864       .  S
Al735       O743   1.872       .  S
Al735       O745   1.902       .  S
Al735       O744   1.775       .  S
C736        O749   1.263       .  A
C736       C1927   1.493       .  S
O737        C747   1.263       .  A
O737       Al739   1.898       .  S
O738        C751   1.266       .  A
O738       Al748   1.928       .  S
Al739       O752   1.889       .  S
Al739       O749   1.937       .  S
Al739       O744   1.791       .  S
O740        C747   1.265       .  A
O740       Al748   1.917       .  S
O741        C750   1.268       .  A
O741       Al748   1.946       .  S
O742       Al748   1.912       .  S
O743        C750   1.257       .  A
O744       Al748   1.791       .  S
O745        C746   1.259       .  A
C746       C3110   1.479   1_455  S
C747       C1030   1.506       .  S
C750        C834   1.512       .  S
C751        O752   1.258       .  A
C751        C971   1.512       .  S
O753        C768   1.264       .  A
O753       Al761   1.926       .  S
C754        O764   1.264       .  A
C754        O755   1.256       .  A
C754        C845   1.507       .  S
O755       Al757   1.909       .  S
O756        C758   1.259       .  A
O756       Al757   1.880       .  S
Al757       O765   1.845       .  S
Al757       O767   1.888       .  S
Al757       O766   1.771       .  S
C758        O771   1.268       .  A
C758       C3096   1.478   1_455  S
O759        C769   1.262       .  A
O759       Al761   1.907       .  S
O760        C773   1.265       .  A
O760       Al770   1.919       .  S
Al761       O774   1.928       .  S
Al761       O771   1.943       .  S
Al761       O766   1.779       .  S
O762        C769   1.267       .  A
O762       Al770   1.927       .  S
O763        C772   1.272       .  A
O763       Al770   1.969       .  S
O764       Al770   1.932       .  S
O765        C772   1.253       .  A
O766       Al770   1.781       .  S
O767        C768   1.256       .  A
C768        C778   1.486       .  S
C769        C988   1.517       .  S
C772        C887   1.480       .  S
C773        O774   1.268       .  A
C773       C1111   1.496       .  S
C775       C1888   1.493   1_545  S
C775        C776   1.409       .  A
C775        C780   1.413       .  A
C776        C777   1.401       .  A
C776        C781   1.453       .  S
C777        C778   1.417       .  A
C777        C784   1.449       .  S
C778        C779   1.416       .  A
C779        C780   1.418       .  A
C779        C782   1.449       .  S
C780       C1935   1.448       .  S
C781        N788   1.157       .  T
C782        N787   1.157       .  T
C783       C1932   1.448       .  S
C783        N785   1.157       .  T
C784        N786   1.157       .  T
C789       C1876   1.481   1_545  S
C789        C790   1.413       .  A
C789        C794   1.415       .  A
C790        C791   1.418       .  A
C790        C795   1.449       .  S
C791        C792   1.412       .  A
C791        C798   1.448       .  S
C792       C3062   1.478       .  S
C792        C793   1.409       .  A
C793        C794   1.402       .  A
C793        C796   1.454       .  S
C794        C797   1.453   1_545  S
C795        N802   1.157       .  T
C796       N3105   1.157       .  T
C797       N1951   1.157       .  T
C798        N800   1.157       .  T
N799       C1949   1.157       .  T
N801       C3100   1.157       .  T
C803        C804   1.410       .  A
C803        C808   1.414       .  A
C804        C805   1.408       .  A
C804        C809   1.451       .  S
C805        C806   1.409       .  A
C805        C812   1.449       .  S
C806       C3050   1.477       .  S
C806        C807   1.407       .  A
C807        C808   1.412       .  A
C807       C3114   1.448       .  S
C808        C811   1.451       .  S
C809        N816   1.157       .  T
C810       C3111   1.448       .  S
C810        N815   1.157   1_655  T
C811        N813   1.157       .  T
C812        N814   1.157       .  T
C817        C818   1.407       .  A
C817        C822   1.408       .  A
C818        C819   1.411       .  A
C818        C823   1.452       .  S
C819        C820   1.424       .  A
C819        C826   1.450       .  S
C820        C821   1.427       .  A
C821        C822   1.416       .  A
C821        C824   1.451       .  S
C822        C825   1.452       .  S
C823        N830   1.157       .  T
C824        N829   1.158       .  T
C825        N827   1.157       .  T
C826        N828   1.156   1_556  T
C831        C832   1.407       .  A
C831        C836   1.405       .  A
C832       C3137   1.416       .  A
C832        C837   1.451       .  S
C833       C3136   1.416   1_455  A
C833        C834   1.424       .  A
C833        C840   1.449       .  S
C834        C835   1.430   1_455  A
C835       C3140   1.411       .  A
C835        C838   1.453       .  S
C836       C3139   1.410       .  A
C836        C839   1.453       .  S
C837        N844   1.157       .  T
C838        N843   1.158       .  T
C839        N841   1.157       .  T
C840        N842   1.158       .  T
C845        C846   1.420       .  A
C845       C3154   1.426   1_455  A
C846       C3151   1.419   1_455  A
C846        C851   1.448       .  S
C847       C3150   1.418       .  A
C847        C848   1.412       .  A
C847        C854   1.451       .  S
C848        C849   1.410       .  A
C849        C850   1.408       .  A
C849        C852   1.456       .  S
C850       C3149   1.425       .  A
C850       C3157   1.453       .  S
C851        N858   1.157       .  T
C852        N857   1.157       .  T
C853       C3154   1.453   1_455  S
C853        N855   1.158       .  T
C854        N856   1.157       .  T
C859        C860   1.409       .  A
C859       C2016   1.405       .  A
C860       C2013   1.420       .  A
C860        C865   1.449       .  S
C861       C2012   1.420   1_545  A
C861        C862   1.422       .  A
C861        C868   1.449   1_545  S
C862        C863   1.428       .  A
C863        C864   1.408       .  A
C863        C866   1.454       .  S
C864       C2011   1.405   1_545  A
C864        C867   1.453       .  S
C865        N872   1.157       .  T
C866        N871   1.157       .  T
C867        N869   1.157       .  T
C868       N2022   1.158   1_556  T
N870       C2020   1.158   1_554  T
C873        C874   1.423       .  A
C874        C875   1.415       .  A
C874        C879   1.451       .  S
C875        C876   1.409       .  A
C875        C882   1.451       .  S
C877        C878   1.408       .  A
C877        C880   1.451       .  S
C878        C881   1.451       .  S
C879        N886   1.157       .  T
C880        N885   1.157       .  T
C881        N883   1.157       .  T
C882        N884   1.157       .  T
C887        C888   1.409       .  A
C887        C892   1.410       .  A
C888        C889   1.418       .  A
C888        C893   1.450       .  S
C889        C890   1.423       .  A
C889        C896   1.450       .  S
C890        C891   1.426       .  A
C891        C892   1.406       .  A
C891        C894   1.454       .  S
C892        C895   1.455       .  S
C893        N900   1.157       .  T
C894        N899   1.157       .  T
C895        N897   1.158       .  T
C901       C2054   1.413       .  A
C901        C906   1.415       .  A
C902       C2053   1.413       .  A
C902        C903   1.414   1_565  A
C902        C907   1.452       .  S
C903        C904   1.424       .  A
C903        C910   1.452       .  S
C904       C2057   1.422       .  A
C905       C2056   1.422       .  A
C905        C906   1.411       .  A
C905        C908   1.451       .  S
C906        C909   1.454       .  S
C907        N914   1.158       .  T
C909        N911   1.157       .  T
C910        N912   1.157       .  T
C915        C916   1.414       .  A
C915        C920   1.415       .  A
C917        C924   1.449       .  S
C918        C919   1.407       .  A
C919        C920   1.396       .  A
C919        C922   1.453       .  S
C920        C923   1.452       .  S
C921        N928   1.157       .  T
C922        N927   1.157   1_556  T
C923        N925   1.155       .  T
C924        N926   1.157       .  T
C929        C930   1.414       .  A
C930        C931   1.416       .  A
C930        C935   1.451       .  S
C931        C932   1.421       .  A
C931        C938   1.450       .  S
C933        C934   1.399       .  A
C933        C936   1.455       .  S
C934        C937   1.447       .  S
C935        N942   1.157       .  T
C936        N941   1.157       .  T
C937        N939   1.157       .  T
C938        N940   1.157       .  T
C943        C944   1.416       .  A
C943        C948   1.421       .  A
C944        C945   1.411       .  A
C944        C949   1.451       .  S
C945        C946   1.412       .  A
C945        C952   1.452       .  S
C946        C947   1.405       .  A
C947        C948   1.412       .  A
C947        C950   1.451       .  S
C948       C3255   1.450       .  S
C949        N956   1.158       .  T
C950       N3259   1.158       .  T
C951       C3252   1.449   1_455  S
C951        N953   1.156       .  T
C952        N954   1.157       .  T
N955       C3254   1.158       .  T
C957        C958   1.416       .  A
C957        C962   1.411       .  A
C958        C959   1.405       .  A
C958        C963   1.456       .  S
C959        C960   1.423       .  A
C959        C966   1.455       .  S
C960        C961   1.424       .  A
C961        C962   1.415       .  A
C961       C3268   1.452       .  S
C962        C965   1.451       .  S
C963        N970   1.157       .  T
C964       C3265   1.452   1_455  S
C964        N969   1.157       .  T
C965       N3271   1.158       .  T
C966        N968   1.158       .  T
N967       C3269   1.158       .  T
C971        C972   1.429       .  A
C971        C976   1.423       .  A
C972        C973   1.408       .  A
C972        C977   1.453       .  S
C973        C974   1.406       .  A
C973        C980   1.454       .  S
C974        C975   1.408       .  A
C975        C976   1.420       .  A
C975        C978   1.449       .  S
C976        C979   1.448       .  S
C977        N984   1.157       .  T
C978        N983   1.157       .  T
C979        N981   1.157       .  T
C980        N982   1.157       .  T
C985        C986   1.411       .  A
C985        C990   1.411       .  A
C986        C987   1.419       .  A
C986        C991   1.451       .  S
C987        C988   1.429       .  A
C987        C994   1.451       .  S
C988        C989   1.424       .  A
C989        C990   1.412       .  A
C989        C992   1.450       .  S
C990        C993   1.453       .  S
C991       N3302   1.158       .  T
C992        N997   1.157       .  T
C993        N995   1.156       .  T
C994        N996   1.157       .  T
N998       C3295   1.158       .  T
C999       C1000   1.414       .  A
C999       C1004   1.425       .  A
C1000      C1001   1.418       .  A
C1000      C1005   1.450       .  S
C1001      C1002   1.419       .  A
C1001      C2160   1.450   1_545  S
C1002      C1003   1.412       .  A
C1003      C1004   1.411       .  A
C1003      C1006   1.453       .  S
C1004      C1007   1.454       .  S
C1005      N2164   1.157   1_545  T
C1006      N1011   1.157       .  T
C1007      N1009   1.158       .  T
C1008      C2153   1.450       .  S
C1008      N1010   1.157       .  T
N1012      C2157   1.157       .  T
C1013      C1014   1.407       .  A
C1013      C1018   1.406       .  A
C1014      C1015   1.408       .  A
C1014      C1019   1.455       .  S
C1015      C1016   1.422       .  A
C1015      C2174   1.452   1_545  S
C1016      C1017   1.419       .  A
C1017      C1018   1.413       .  A
C1017      C1020   1.450       .  S
C1018      C1021   1.449       .  S
C1019      N1026   1.157       .  T
C1020      N1025   1.157       .  T
C1021      N1023   1.157       .  T
C1022      C2167   1.451       .  S
C1022      N1024   1.158       .  T
C1027      C1028   1.416       .  A
C1027      C1032   1.411       .  A
C1028      C1029   1.411       .  A
C1028      C1033   1.454       .  S
C1029      C1030   1.422       .  A
C1029      C1036   1.452       .  S
C1030      C1031   1.423       .  A
C1031      C1032   1.417       .  A
C1031      C2186   1.452       .  S
C1032      C2187   1.449       .  S
C1033      N1040   1.157       .  T
C1034      C2183   1.452       .  S
C1034      N1039   1.157   1_565  T
C1035      C2184   1.449   1_545  S
C1035      N1037   1.157       .  T
C1036      N1038   1.158       .  T
C1041      C1042   1.410       .  A
C1041      C1046   1.410       .  A
C1042      C1043   1.417       .  A
C1042      C1047   1.452       .  S
C1043      C1044   1.426       .  A
C1043      C1050   1.452       .  S
C1044      C1045   1.419       .  A
C1045      C1046   1.415       .  A
C1045      C1048   1.450       .  S
C1046      C2201   1.452       .  S
C1047      N1054   1.157       .  T
C1048      N2205   1.157       .  T
C1049      C2198   1.451       .  S
C1049      N1051   1.157       .  T
C1050      N1052   1.157       .  T
N1053      C2200   1.157       .  T
C1055      C1056   1.418       .  A
C1055      C1060   1.419       .  A
C1056      C1057   1.396       .  A
C1056      C1061   1.449       .  S
C1057      C1058   1.399       .  A
C1057      C1064   1.447       .  S
C1058      C1059   1.409       .  A
C1059      C1060   1.420       .  A
C1059      C1062   1.448       .  S
C1060      C1063   1.446       .  S
C1061      N1068   1.157       .  T
C1062      N1067   1.157       .  T
C1063      N1065   1.157       .  T
C1064      N1066   1.155       .  T
C1069      C1070   1.423       .  A
C1069      C1074   1.416       .  A
C1070      C1071   1.409       .  A
C1070      C1075   1.454       .  S
C1071      C1072   1.412       .  A
C1071      C1078   1.454       .  S
C1072      C1073   1.414       .  A
C1073      C1074   1.414       .  A
C1073      C1076   1.451       .  S
C1074      C1077   1.450       .  S
C1075      N1082   1.157       .  T
C1076      N1081   1.157       .  T
C1077      N1079   1.157       .  T
C1078      N1080   1.157       .  T
C1083      C1084   1.428       .  A
C1083      C1088   1.422       .  A
C1084      C1085   1.402       .  A
C1084      C1089   1.453       .  S
C1085      C1086   1.400       .  A
C1085      C1092   1.454       .  S
C1086      C1087   1.407       .  A
C1087      C1088   1.415       .  A
C1087      C1090   1.449       .  S
C1088      C1091   1.450       .  S
C1089      N1096   1.158       .  T
C1090      N1095   1.158       .  T
C1091      N1093   1.157       .  T
C1092      N1094   1.156       .  T
C1097      C1098   1.413       .  A
C1097      C1102   1.412       .  A
C1098      C1099   1.409       .  A
C1098      C1103   1.454       .  S
C1099      C1100   1.419       .  A
C1099      C1106   1.452       .  S
C1100      C1101   1.418       .  A
C1101      C1102   1.415       .  A
C1101      C1104   1.451       .  S
C1102      C1105   1.451       .  S
C1103      N1110   1.158       .  T
C1104      N1109   1.157       .  T
C1105      N1107   1.157       .  T
C1106      N1108   1.158       .  T
C1111      C1112   1.410       .  A
C1111      C1116   1.413       .  A
C1112      C1113   1.406       .  A
C1112      C1117   1.447       .  S
C1113      C1114   1.423       .  A
C1113      C1120   1.453       .  S
C1114      C1115   1.420       .  A
C1115      C1116   1.421       .  A
C1115      C1118   1.450       .  S
C1116      C1119   1.446       .  S
C1117      N1124   1.155       .  T
C1118      N1123   1.158       .  T
C1119      N1121   1.156       .  T
C1120      N1122   1.157       .  T
C1125      C1126   1.403       .  A
C1125      C1130   1.407       .  A
C1126      C1127   1.401       .  A
C1126      C1131   1.453       .  S
C1127      C1128   1.424       .  A
C1127      C1134   1.447       .  S
C1128      C1129   1.424       .  A
C1129      C1130   1.416       .  A
C1129      C1132   1.450       .  S
C1130      C1133   1.447       .  S
C1131      N1138   1.156       .  T
C1132      N1137   1.157       .  T
C1133      N1135   1.157       .  T
C1134      N1136   1.155       .  T
C1139      C1140   1.421       .  A
C1139      C1144   1.413       .  A
C1140      C1141   1.407       .  A
C1140      C1145   1.446       .  S
C1141      C1142   1.400       .  A
C1141      C1148   1.448       .  S
C1142      C1143   1.408       .  A
C1143      C1144   1.414       .  A
C1143      C1146   1.450       .  S
C1144      C1147   1.448       .  S
C1145      N1152   1.155       .  T
C1146      N1151   1.157       .  T
C1147      N1149   1.157       .  T
C1148      N1150   1.156       .  T
O1153      C1168   1.258       .  A
O1153     Al1161   1.903       .  S
C1154      O1164   1.260       .  A
C1154      O1155   1.258       .  A
C1154      C1673   1.490       .  S
O1155     Al1157   1.895       .  S
O1156      C1158   1.255       .  A
O1156     Al1157   1.860       .  S
Al1157     O1165   1.860       .  S
Al1157     O1167   1.914       .  S
Al1157     O1166   1.769       .  S
C1158      O1171   1.261       .  A
C1158      C1701   1.487       .  S
O1159      C1169   1.264       .  A
O1159     Al1161   1.896       .  S
O1160      C1173   1.265       .  A
O1160     Al1170   1.918       .  S
Al1161     O1174   1.874       .  S
Al1161     O1171   1.931       .  S
Al1161     O1166   1.788       .  S
O1162      C1169   1.269       .  A
O1162     Al1170   1.929       .  S
O1163      C1172   1.272       .  A
O1163     Al1170   1.963       .  S
O1164     Al1170   1.911       .  S
O1165      C1172   1.254       .  A
O1166     Al1170   1.785       .  S
O1167      C1168   1.262       .  A
C1168      C1718   1.475       .  S
C1169      C1648   1.491       .  S
C1172      C1690   1.515       .  S
C1173      O1174   1.256       .  A
C1173      C1659   1.499       .  S
O1175      C1190   1.258       .  A
O1175     Al1183   1.899       .  S
C1176      O1177   1.257       .  A
C1176      C1603   1.506       .  S
O1177     Al1179   1.893       .  S
O1178      C1180   1.260       .  A
O1178     Al1179   1.877       .  S
Al1179     O1187   1.864       .  S
Al1179     O1189   1.901       .  S
Al1179     O1188   1.774       .  S
C1180      O1193   1.263       .  A
C1180      C1634   1.499       .  S
O1181     Al1183   1.884       .  S
O1182      C1195   1.265       .  A
O1182     Al1192   1.925       .  S
Al1183     O1196   1.891       .  S
Al1183     O1193   1.925       .  S
Al1183     O1188   1.780       .  S
O1184      C1191   1.268       .  A
O1184     Al1192   1.938       .  S
O1185     Al1192   1.957       .  S
O1186     Al1192   1.926       .  S
O1187      C1194   1.255       .  A
O1189      C1190   1.258       .  A
C1190      C1704   1.479       .  S
C1191      C1578   1.515       .  S
C1194      C1617   1.485       .  S
C1195      C1592   1.513       .  S
O1197      C1212   1.266       .  A
O1197     Al1205   1.926       .  S
C1198      O3512   1.258       .  A
C1198      O1199   1.254       .  A
C1198      C1561   1.487       .  S
O1199     Al1201   1.886       .  S
O1200      C1202   1.267       .  A
O1200     Al1201   1.928       .  S
Al1201     O1209   1.887       .  S
Al1201     O1211   1.894       .  S
Al1201     O1210   1.781       .  S
C1202      O1215   1.258       .  A
C1202      C1715   1.499       .  S
O1203      C3517   1.263   1_455  A
O1203     Al1205   1.898       .  S
O1204      C1217   1.257       .  A
O1204     Al1214   1.910       .  S
Al1205     O1218   1.898       .  S
Al1205     O1215   1.895       .  S
Al1205     O1210   1.789       .  S
O1206      C1213   1.264       .  A
O1206     Al1214   1.903       .  S
O1207      C3520   1.260       .  A
O1207     Al1214   1.921       .  S
O1208      C3502   1.258       .  A
O1208     Al1214   1.914       .  S
O1209      C1216   1.261       .  A
O1210     Al3518   1.797       .  S
O1211      C1212   1.258       .  A
C1212      C1631   1.488       .  S
C1213      O3507   1.263       .  A
C1213      C1536   1.510       .  S
Al1214     O3514   1.797       .  S
C1216      O3511   1.261       .  A
C1216      C1550   1.487       .  S
C1217      O3522   1.256       .  A
C1217      C1519   1.497       .  S
O1218      C3521   1.256   1_455  A
O1219      C1234   1.259       .  A
O1219     Al1227   1.927       .  S
C1220      O1230   1.264       .  A
C1220      O1221   1.254       .  A
C1220      C1575   1.494       .  S
O1221     Al1223   1.882       .  S
O1222      C1800   1.265   1_554  A
O1222     Al1223   1.883       .  S
Al1223     O1231   1.872       .  S
Al1223     O1233   1.863       .  S
Al1223     O1232   1.768       .  S
C1224      O1798   1.265       .  A
C1224      O1237   1.260       .  A
C1224      C1508   1.494       .  S
O1225      C1235   1.255       .  A
O1225     Al1227   1.880       .  S
O1226      C1239   1.267       .  A
O1226     Al1812   1.934       .  S
Al1227     O1240   1.878       .  S
Al1227     O1237   1.905       .  S
Al1227     O1808   1.793       .  S
O1228      C1235   1.261       .  A
O1228     Al1812   1.911       .  S
O1229      C1238   1.264       .  A
O1229     Al1236   1.931       .  S
O1230     Al1236   1.930       .  S
O1231      C1238   1.261       .  A
O1232     Al1803   1.792   1_554  S
O1232     Al1236   1.790       .  S
O1233      C1810   1.253   1_554  A
C1234      O1809   1.253       .  A
C1234      C1491   1.486       .  S
C1235      C1480   1.510       .  S
Al1236     O1802   1.919   1_554  S
Al1236     O1804   1.913   1_554  S
C1238      C1662   1.479       .  S
C1239      O1240   1.257       .  A
C1239      C1466   1.517       .  S
O1241      C1256   1.262       .  A
O1241     Al1249   1.918       .  S
C1242      O1252   1.261       .  A
C1242      O1243   1.251       .  A
C1242      C1533   1.490       .  S
O1243     Al1245   1.864       .  S
O1244      C1822   1.264   1_554  A
O1244     Al1245   1.904       .  S
Al1245     O1253   1.870       .  S
Al1245     O1255   1.893       .  S
Al1245     O1254   1.782       .  S
C1246      O1820   1.257       .  A
C1246      O1259   1.258       .  A
C1246      C1449   1.495       .  S
O1247      C1257   1.265       .  A
O1247     Al1249   1.912       .  S
O1248      C1261   1.260       .  A
O1248     Al1834   1.919       .  S
Al1249     O1262   1.877       .  S
Al1249     O1259   1.913       .  S
Al1249     O1830   1.797       .  S
O1250      C1257   1.262       .  A
O1250     Al1834   1.890       .  S
O1251      C1260   1.264       .  A
O1251     Al1258   1.937       .  S
O1252     Al1258   1.923       .  S
O1253      C1260   1.258       .  A
O1254     Al1825   1.783   1_554  S
O1254     Al1258   1.796       .  S
O1255      C1832   1.255   1_554  A
C1256      O1831   1.255       .  A
C1256      C1505   1.486       .  S
C1257      C1424   1.483       .  S
Al1258     O1824   1.930   1_554  S
Al1258     O1826   1.903   1_554  S
C1260      C1589   1.483       .  S
C1261      O1262   1.252       .  A
C1261      C1438   1.510       .  S
O1263      C1278   1.261       .  A
O1263     Al1271   1.910       .  S
C1264      O1274   1.263       .  A
C1264      O1265   1.256       .  A
C1264      C1645   1.502       .  S
O1265     Al1267   1.898       .  S
O1266      C1844   1.258   1_554  A
O1266     Al1267   1.884       .  S
Al1267     O1275   1.858       .  S
Al1267     O1277   1.872   1_554  S
Al1267     O1276   1.772   1_554  S
C1268      O1842   1.256       .  A
C1268      O1281   1.261       .  A
C1268      C1494   1.471       .  S
O1269      C1279   1.258       .  A
O1269     Al1271   1.888       .  S
O1270      C1283   1.264       .  A
O1270     Al1856   1.908       .  S
Al1271     O1284   1.910       .  S
Al1271     O1281   1.926       .  S
Al1271     O1852   1.788       .  S
O1272      C1279   1.266       .  A
O1272     Al1856   1.925       .  S
O1273      C1282   1.268       .  A
O1273     Al1280   1.955       .  S
O1274     Al1280   1.923       .  S
O1275      C1282   1.253       .  A
O1276     Al1847   1.792       .  S
O1276     Al1280   1.787   1_556  S
O1277      C1854   1.254       .  A
C1278      O1853   1.258       .  A
C1278      C1452   1.472       .  S
C1279      C1396   1.507       .  S
Al1280     O1846   1.907   1_554  S
Al1280     O1848   1.920   1_554  S
C1282      C1522   1.478       .  S
C1283      O1284   1.263       .  A
C1283      C1407   1.479       .  S
O1285      C1300   1.266       .  A
O1285     Al1293   1.943       .  S
C1286      O1296   1.269       .  A
C1286      O1287   1.252       .  A
C1286      C1393   1.478       .  S
O1287     Al1289   1.859       .  S
O1288      C1290   1.261       .  A
O1288     Al1289   1.907       .  S
Al1289     O1297   1.929       .  S
Al1289     O1299   1.884       .  S
Al1289     O1298   1.775       .  S
C1290      O1303   1.257       .  A
C1290      C1379   1.473       .  S
O1291      C1301   1.268       .  A
O1291     Al1293   1.933       .  S
O1292      C1305   1.270       .  A
O1292     Al1302   1.952       .  S
Al1293     O1306   1.884       .  S
Al1293     O1303   1.892       .  S
Al1293     O1298   1.784       .  S
O1294      C1301   1.262       .  A
O1294     Al1302   1.901       .  S
O1295      C1304   1.262       .  A
O1295     Al1302   1.907       .  S
O1296     Al1302   1.957       .  S
O1297      C1304   1.263       .  A
O1298     Al1302   1.783       .  S
O1299      C1300   1.259       .  A
C1301      C1676   1.503       .  S
C1304      C1435   1.486       .  S
C1305      O1306   1.258       .  A
C1305      C1620   1.496       .  S
O1307      C1322   1.259       .  A
O1307     Al1315   1.905       .  S
C1308      O1318   1.261       .  A
C1308      O1309   1.259       .  A
C1308      C1477   1.492       .  S
O1309     Al1311   1.894       .  S
O1310      C1312   1.258       .  A
O1310     Al1311   1.872       .  S
Al1311     O1319   1.867       .  S
Al1311     O1321   1.902       .  S
Al1311     O1320   1.771       .  S
C1312      O1325   1.262       .  A
O1313      C1323   1.260       .  A
O1313     Al1315   1.885       .  S
O1314      C1327   1.265       .  A
O1314     Al1324   1.924       .  S
Al1315     O1328   1.889       .  S
Al1315     O1325   1.932       .  S
Al1315     O1320   1.784       .  S
O1316      C1323   1.269       .  A
O1316     Al1324   1.942       .  S
O1317      C1326   1.269       .  A
O1317     Al1324   1.952       .  S
O1318     Al1324   1.905       .  S
O1319      C1326   1.256       .  A
O1320     Al1324   1.790       .  S
O1321      C1322   1.260       .  A
C1322      C3686   1.473   1_455  S
C1323      C1606   1.519       .  S
C1326      C1410   1.505       .  S
C1327      O1328   1.259       .  A
C1327      C1547   1.506       .  S
O1329      C1344   1.266       .  A
O1329     Al1337   1.927       .  S
C1330      O1340   1.263       .  A
C1330      O1331   1.255       .  A
C1330      C1421   1.503       .  S
O1331     Al1333   1.904       .  S
O1332      C1334   1.258       .  A
O1332     Al1333   1.884       .  S
Al1333     O1341   1.845       .  S
Al1333     O1343   1.885       .  S
Al1333     O1342   1.769       .  S
C1334      O1347   1.268       .  A
C1334      C3672   1.483   1_455  S
O1335      C1345   1.261       .  A
O1335     Al1337   1.898       .  S
O1336      C1349   1.267       .  A
O1336     Al1346   1.928       .  S
Al1337     O1350   1.933       .  S
Al1337     O1347   1.950       .  S
Al1337     O1342   1.780       .  S
O1338      C1345   1.270       .  A
O1338     Al1346   1.937       .  S
O1339      C1348   1.274       .  A
O1339     Al1346   1.976       .  S
O1340     Al1346   1.930       .  S
O1341      C1348   1.253       .  A
O1342     Al1346   1.782       .  S
O1343      C1344   1.256       .  A
C1344      C1354   1.482       .  S
C1345      C1564   1.511       .  S
C1348      C1463   1.484       .  S
C1349      O1350   1.268       .  A
C1349      C1687   1.500       .  S
C1351      C1352   1.407       .  A
C1351      C1356   1.414       .  A
C1352      C1353   1.399       .  A
C1352      C1357   1.452       .  S
C1353      C1354   1.416       .  A
C1353      C1360   1.448       .  S
C1354      C1355   1.415       .  A
C1355      C1356   1.418       .  A
C1355      C1358   1.449       .  S
C1357      N1364   1.156       .  T
C1358      N1363   1.157       .  T
C1359      N1361   1.157       .  T
C1360      N1362   1.156       .  T
C1365      C1366   1.414       .  A
C1365      C1370   1.413       .  A
C1366      C1367   1.419       .  A
C1366      C1371   1.449       .  S
C1367      C1368   1.413       .  A
C1367      C1374   1.449       .  S
C1368      C3638   1.483       .  S
C1368      C1369   1.412       .  A
C1369      C1370   1.404       .  A
C1369      C1372   1.453       .  S
C1370      C1373   1.453       .  S
C1371      N1378   1.157       .  T
C1372      N3681   1.157       .  T
C1374      N1376   1.157       .  T
N1377      C3676   1.157       .  T
C1379      C1380   1.408       .  A
C1379      C1384   1.413       .  A
C1380      C1381   1.408       .  A
C1380      C1385   1.451       .  S
C1381      C1382   1.411       .  A
C1381      C1388   1.449       .  S
C1382      C3626   1.473       .  S
C1382      C1383   1.406       .  A
C1383      C1384   1.409       .  A
C1383      C3690   1.448       .  S
C1384      C1387   1.451       .  S
C1385      N1392   1.157       .  T
C1386      C3687   1.448       .  S
C1386      N1391   1.156   1_655  T
C1387      N1389   1.157       .  T
C1388      N1390   1.157       .  T
C1393      C1394   1.409       .  A
C1393      C1398   1.406       .  A
C1394      C1395   1.409       .  A
C1394      C1399   1.451       .  S
C1395      C1396   1.421       .  A
C1395      C1402   1.452       .  S
C1396      C1397   1.428       .  A
C1397      C1398   1.414       .  A
C1397      C1400   1.452       .  S
C1398      C1401   1.452       .  S
C1399      N1406   1.157       .  T
C1400      N1405   1.158       .  T
C1401      N1403   1.157       .  T
C1402      N1404   1.157       .  T
C1407      C1408   1.408       .  A
C1407      C1412   1.406       .  A
C1408      C3713   1.415       .  A
C1408      C1413   1.451       .  S
C1409      C3712   1.415   1_455  A
C1409      C1410   1.420       .  A
C1409      C1416   1.449       .  S
C1410      C1411   1.428   1_455  A
C1411      C3716   1.409       .  A
C1411      C1414   1.454       .  S
C1412      C3715   1.410       .  A
C1412      C1415   1.453       .  S
C1413      N1420   1.157       .  T
C1414      N1419   1.158       .  T
C1415      N1417   1.157       .  T
C1416      N1418   1.158       .  T
C1421      C1422   1.419       .  A
C1421      C3730   1.425   1_455  A
C1422      C3727   1.418   1_455  A
C1422      C1427   1.449       .  S
C1423      C3726   1.418       .  A
C1423      C1424   1.410       .  A
C1423      C1430   1.450       .  S
C1424      C1425   1.409       .  A
C1425      C1426   1.406       .  A
C1425      C1428   1.456       .  S
C1426      C3725   1.425       .  A
C1426      C3733   1.453       .  S
C1427      N1434   1.157       .  T
C1428      N1433   1.157       .  T
C1429      C3730   1.452   1_455  S
C1429      N1431   1.158       .  T
C1430      N1432   1.157       .  T
C1435      C1436   1.409       .  A
C1436      C1441   1.449       .  S
C1437      C1438   1.423       .  A
C1437      C1444   1.450       .  S
C1438      C1439   1.427       .  A
C1439      C1440   1.410       .  A
C1439      C1442   1.454       .  S
C1440      C1443   1.452       .  S
C1441      N1448   1.157       .  T
C1442      N1447   1.157       .  T
C1443      N1445   1.156       .  T
C1449      C1450   1.420       .  A
C1449      C2030   1.418       .  A
C1450      C1451   1.413       .  A
C1450      C1455   1.450       .  S
C1451      C1452   1.408       .  A
C1451      C1458   1.451       .  S
C1452      C2029   1.406       .  A
C1453      C2028   1.409       .  A
C1453      C1454   1.411       .  A
C1453      C1456   1.451   1_556  S
C1454      C2025   1.417       .  A
C1454      C1457   1.449   1_556  S
C1455      N1462   1.157       .  T
C1456      N1461   1.157       .  T
C1457      N1459   1.157       .  T
C1458      N1460   1.157       .  T
C1463      C1464   1.410       .  A
C1463      C1468   1.409       .  A
C1464      C1465   1.421       .  A
C1464      C1469   1.451       .  S
C1465      C1466   1.424       .  A
C1465      C1472   1.449       .  S
C1466      C1467   1.429       .  A
C1467      C1468   1.408       .  A
C1467      C1470   1.454       .  S
C1468      C1471   1.455       .  S
C1469      N1476   1.157       .  T
C1470      N1475   1.157       .  T
C1471      N1473   1.158       .  T
C1472      N2050   1.158       .  T
N1474      C2048   1.158   1_554  T
C1477      C1482   1.413       .  A
C1478      C1479   1.413       .  A
C1478      C1483   1.451       .  S
C1479      C1480   1.426       .  A
C1479      C1486   1.453       .  S
C1481      C1482   1.410   1_545  A
C1481      C1484   1.452       .  S
C1482      C1485   1.454       .  S
C1483      N1490   1.157       .  T
C1484      N2065   1.158       .  T
C1485      N1487   1.157       .  T
C1486      N1488   1.157       .  T
N1489      C2060   1.158   1_554  T
C1491      C1492   1.415       .  A
C1491      C1496   1.416       .  A
C1492      C2069   1.420       .  A
C1492      C2073   1.448       .  S
C1493      C2068   1.418       .  A
C1493      C2070   1.412       .  A
C1493      C1500   1.449       .  S
C1494      C2069   1.412       .  A
C1494      C1495   1.404       .  A
C1495      C1496   1.397       .  A
C1495      C1498   1.453       .  S
C1496      C1499   1.450       .  S
C1497      C2068   1.448       .  S
C1497      N1504   1.158       .  T
C1498      N1503   1.156       .  T
C1499      N1501   1.155       .  T
C1500      N1502   1.157       .  T
C1505      C1506   1.413       .  A
C1505      C2086   1.421       .  A
C1506      C1507   1.417       .  A
C1506      C1511   1.450       .  S
C1507      C1508   1.422       .  A
C1507      C1514   1.449       .  S
C1508      C2085   1.405       .  A
C1509      C2084   1.406   1_554  A
C1509      C1510   1.398       .  A
C1509      C1512   1.454       .  S
C1510      C2081   1.420   1_554  A
C1510      C1513   1.449       .  S
C1511      N1518   1.157       .  T
C1512      N1517   1.157       .  T
C1513      N1515   1.157       .  T
C1514      N1516   1.157       .  T
C1519      C1520   1.416       .  A
C1519      C1524   1.420       .  A
C1520      C1521   1.412       .  A
C1520      C1525   1.451       .  S
C1521      C1522   1.413       .  A
C1521      C1528   1.453       .  S
C1522      C1523   1.405       .  A
C1523      C1524   1.412       .  A
C1523      C1526   1.451       .  S
C1524      C3831   1.447       .  S
C1525      N1532   1.158       .  T
C1526      N3835   1.158       .  T
C1527      C3828   1.449   1_455  S
C1527      N1529   1.156       .  T
C1528      N1530   1.157       .  T
N1531      C3830   1.157       .  T
C1533      C1534   1.414       .  A
C1533      C1538   1.411       .  A
C1534      C1535   1.408       .  A
C1534      C1539   1.455       .  S
C1535      C1536   1.425       .  A
C1535      C1542   1.454       .  S
C1536      C1537   1.426       .  A
C1537      C1538   1.416       .  A
C1537      C3844   1.452       .  S
C1538      C1541   1.451       .  S
C1539      N1546   1.157       .  T
C1540      C3841   1.452   1_455  S
C1540      N1545   1.157       .  T
C1541      N3847   1.158       .  T
C1542      N1544   1.158       .  T
N1543      C3845   1.158       .  T
C1547      C1548   1.425       .  A
C1547      C1552   1.422       .  A
C1548      C1549   1.405       .  A
C1548      C1553   1.454       .  S
C1549      C1550   1.406       .  A
C1549      C1556   1.452       .  S
C1550      C1551   1.408       .  A
C1551      C1552   1.420       .  A
C1551      C1554   1.448       .  S
C1552      C1555   1.447       .  S
C1553      N1560   1.157       .  T
C1554      N1559   1.157   1_455  T
C1555      N1557   1.157       .  T
C1556      N1558   1.157       .  T
C1561      C1562   1.409       .  A
C1561      C1566   1.410       .  A
C1562      C1563   1.417       .  A
C1562      C1567   1.452       .  S
C1563      C1564   1.428       .  A
C1563      C1570   1.451       .  S
C1564      C1565   1.420       .  A
C1565      C1566   1.412       .  A
C1565      C1568   1.449       .  S
C1566      C1569   1.452       .  S
C1567      N3878   1.158       .  T
C1568      N1573   1.157       .  T
C1569      N1571   1.156       .  T
C1570      N1572   1.157       .  T
N1574      C3871   1.158       .  T
C1575      C1576   1.409       .  A
C1575      C1580   1.416       .  A
C1576      C1577   1.416       .  A
C1576      C1581   1.453       .  S
C1577      C1578   1.430       .  A
C1578      C1579   1.422       .  A
C1579      C1580   1.413       .  A
C1579      C1582   1.453       .  S
C1580      C1583   1.453       .  S
C1582      N1587   1.157       .  T
C1583      N1585   1.158       .  T
C1584      N1586   1.158       .  T
C1589      C1590   1.405       .  A
C1589      C1594   1.406       .  A
C1590      C1591   1.408       .  A
C1590      C1595   1.455       .  S
C1591      C1592   1.430       .  A
C1592      C1593   1.426       .  A
C1593      C1594   1.419       .  A
C1593      C1596   1.450       .  S
C1594      C1597   1.450       .  S
C1595      N1602   1.157       .  T
C1596      N1601   1.158       .  T
C1597      N1599   1.157       .  T
C1598      N1600   1.157   1_545  T
C1603      C1604   1.420       .  A
C1603      C1608   1.414       .  A
C1604      C1605   1.417       .  A
C1604      C1609   1.454       .  S
C1605      C1606   1.424       .  A
C1605      C1612   1.452       .  S
C1606      C1607   1.427       .  A
C1607      C1608   1.416       .  A
C1609      N1616   1.157       .  T
C1610      N1615   1.157       .  T
C1611      N1613   1.156       .  T
C1612      N1614   1.158       .  T
C1617      C1618   1.410       .  A
C1617      C1622   1.410       .  A
C1618      C1619   1.411       .  A
C1618      C1623   1.453       .  S
C1619      C1620   1.419       .  A
C1619      C1626   1.452       .  S
C1620      C1621   1.416       .  A
C1621      C1622   1.418       .  A
C1621      C1624   1.449       .  S
C1623      N1630   1.158       .  T
C1625      N1627   1.157       .  T
C1626      N1628   1.157       .  T
C1631      C1632   1.417       .  A
C1631      C1636   1.414       .  A
C1632      C1633   1.398       .  A
C1632      C1637   1.450       .  S
C1633      C1634   1.410       .  A
C1633      C1640   1.451       .  S
C1634      C1635   1.421       .  A
C1635      C1636   1.418       .  A
C1635      C1638   1.449       .  S
C1636      C1639   1.447       .  S
C1637      N1644   1.157       .  T
C1638      N1643   1.157       .  T
C1639      N1641   1.157       .  T
C1640      N1642   1.156       .  T
C1645      C1646   1.424       .  A
C1645      C1650   1.417       .  A
C1646      C1647   1.409       .  A
C1646      C1651   1.455       .  S
C1647      C1648   1.413       .  A
C1647      C1654   1.454       .  S
C1648      C1649   1.414       .  A
C1649      C1650   1.416       .  A
C1649      C1652   1.452       .  S
C1650      C1653   1.449       .  S
C1651      N1658   1.157       .  T
C1652      N1657   1.157       .  T
C1653      N1655   1.157       .  T
C1654      N1656   1.158       .  T
C1659      C1660   1.428       .  A
C1659      C1664   1.420       .  A
C1660      C1661   1.402       .  A
C1660      C1665   1.454       .  S
C1661      C1662   1.404       .  A
C1661      C1668   1.453       .  S
C1662      C1663   1.410       .  A
C1663      C1664   1.416       .  A
C1663      C1666   1.449       .  S
C1664      C1667   1.450       .  S
C1665      N1672   1.158       .  T
C1666      N1671   1.158       .  T
C1667      N1669   1.157       .  T
C1668      N1670   1.155   1_554  T
C1673      C1674   1.413       .  A
C1673      C1678   1.412       .  A
C1674      C1675   1.412       .  A
C1674      C1679   1.453       .  S
C1675      C1676   1.420       .  A
C1675      C1682   1.451       .  S
C1676      C1677   1.421       .  A
C1677      C1678   1.415       .  A
C1677      C1680   1.451       .  S
C1678      C1681   1.451       .  S
C1679      N1686   1.157       .  T
C1680      N1685   1.157       .  T
C1681      N1683   1.157       .  T
C1682      N1684   1.157       .  T
C1687      C1688   1.410       .  A
C1687      C1692   1.412       .  A
C1688      C1689   1.411       .  A
C1688      C1693   1.447       .  S
C1689      C1690   1.426       .  A
C1689      C1696   1.454       .  S
C1690      C1691   1.421       .  A
C1691      C1692   1.421       .  A
C1691      C1694   1.450       .  S
C1692      C1695   1.444       .  S
C1693      N1700   1.155       .  T
C1694      N1699   1.158       .  T
C1695      N1697   1.156       .  T
C1696      N1698   1.157       .  T
C1701      C1702   1.406       .  A
C1701      C1706   1.411       .  A
C1702      C1703   1.397       .  A
C1702      C1707   1.452       .  S
C1703      C1704   1.415       .  A
C1703      C1710   1.449       .  S
C1704      C1705   1.417       .  A
C1705      C1706   1.415       .  A
C1705      C1708   1.450       .  S
C1706      C1709   1.448       .  S
C1707      N1714   1.156       .  T
C1708      N1713   1.157       .  T
C1709      N1711   1.157       .  T
C1710      N1712   1.157       .  T
C1715      C1716   1.424       .  A
C1715      C1720   1.414       .  A
C1716      C1717   1.408       .  A
C1716      C1721   1.447       .  S
C1717      C1718   1.400       .  A
C1717      C1724   1.449       .  S
C1718      C1719   1.408       .  A
C1719      C1720   1.414       .  A
C1719      C1722   1.449       .  S
C1720      C1723   1.448       .  S
C1721      N1728   1.156       .  T
C1722      N1727   1.157       .  T
C1723      N1725   1.157       .  T
C1724      N1726   1.157       .  T
O1729      C1744   1.259       .  A
O1729     Al1737   1.898       .  S
C1730      O1740   1.262       .  A
C1730      O1731   1.260       .  A
C1730      C2249   1.486       .  S
O1731     Al1733   1.891       .  S
O1732      C1734   1.255       .  A
O1732     Al1733   1.861       .  S
Al1733     O1741   1.860       .  S
Al1733     O1743   1.912       .  S
Al1733     O1742   1.761       .  S
C1734      O1747   1.261       .  A
C1734      C2277   1.487       .  S
O1735      C1745   1.261       .  A
O1735     Al1737   1.885       .  S
O1736      C1749   1.265       .  A
O1736     Al1746   1.920       .  S
Al1737     O1750   1.889       .  S
Al1737     O1747   1.931       .  S
Al1737     O1742   1.783       .  S
O1738      C1745   1.272       .  A
O1738     Al1746   1.942       .  S
O1739      C1748   1.270       .  A
O1739     Al1746   1.959       .  S
O1740     Al1746   1.910       .  S
O1741      C1748   1.254       .  A
O1742     Al1746   1.781       .  S
O1743      C1744   1.263       .  A
C1744      C2294   1.470       .  S
C1745      C2224   1.486       .  S
C1748      C2266   1.510       .  S
C1749      O1750   1.259       .  A
C1749      C2235   1.503       .  S
O1751      C1766   1.265       .  A
O1751     Al1759   1.934       .  S
C1752      O1753   1.255       .  A
C1752      C2179   1.494       .  S
O1753     Al1755   1.861       .  S
O1754      C1756   1.262       .  A
O1754     Al1755   1.901       .  S
Al1755     O1763   1.908       .  S
Al1755     O1765   1.868       .  S
Al1755     O1764   1.773       .  S
C1756      O1769   1.257       .  A
C1756      C2210   1.479       .  S
O1757     Al1759   1.919       .  S
O1758      C1771   1.267       .  A
O1758     Al1768   1.937       .  S
Al1759     O1772   1.879       .  S
Al1759     O1769   1.902       .  S
Al1759     O1764   1.791       .  S
O1760      C1767   1.263       .  A
O1760     Al1768   1.901       .  S
O1761     Al1768   1.918       .  S
O1762     Al1768   1.956       .  S
O1763      C1770   1.260       .  A
O1765      C1766   1.256       .  A
C1766      C2280   1.501       .  S
C1767      C2154   1.493       .  S
C1770      C2193   1.491       .  S
C1771      C2168   1.493       .  S
O1773      C1788   1.265       .  A
O1773     Al1781   1.921       .  S
C1774      O4088   1.259       .  A
C1774      O1775   1.256       .  A
C1774      C2137   1.493       .  S
O1775     Al1777   1.893       .  S
O1776      C1778   1.266       .  A
O1776     Al1777   1.918       .  S
Al1777     O1785   1.889       .  S
Al1777     O1787   1.898       .  S
Al1777     O1786   1.779       .  S
C1778      O1791   1.258       .  A
C1778      C2291   1.494       .  S
O1779      C4093   1.262       .  A
O1779     Al1781   1.898       .  S
O1780      C1793   1.258       .  A
O1780     Al1790   1.910       .  S
Al1781     O1794   1.904       .  S
Al1781     O1791   1.898       .  S
Al1781     O1786   1.793       .  S
O1782      C1789   1.262       .  A
O1782     Al1790   1.892       .  S
O1783      C4096   1.260       .  A
O1783     Al1790   1.919       .  S
O1784      C4078   1.258       .  A
O1784     Al1790   1.915       .  S
O1785      C1792   1.261       .  A
O1786     Al4094   1.794       .  S
O1787      C1788   1.259       .  A
C1788      C2207   1.488       .  S
C1789      O4083   1.263       .  A
C1789      C2112   1.505       .  S
Al1790     O4090   1.796       .  S
C1792      O4087   1.261       .  A
C1792      C2126   1.487       .  S
C1793      O4098   1.254       .  A
C1793      C2095   1.494       .  S
O1794      C4097   1.258       .  A
O1795      C1810   1.258       .  A
O1795     Al1803   1.921       .  S
C1796      O1806   1.265       .  A
C1796      O1797   1.251       .  A
C1796      C2151   1.502       .  S
O1797     Al1799   1.867       .  S
O1798     Al1799   1.887       .  S
Al1799     O1807   1.876       .  S
Al1799     O1809   1.864       .  S
Al1799     O1808   1.771       .  S
C1800      O1813   1.262       .  A
C1800      C2084   1.494       .  S
O1801      C1811   1.256       .  A
O1801     Al1803   1.883       .  S
O1802      C1815   1.265       .  A
Al1803     O1816   1.883       .  S
Al1803     O1813   1.911       .  S
O1804      C1811   1.261       .  A
O1805      C1814   1.262       .  A
O1805     Al1812   1.923       .  S
O1806     Al1812   1.938       .  S
O1807      C1814   1.260       .  A
O1808     Al1812   1.796       .  S
C1810      C2067   1.486       .  S
C1811      C2056   1.510       .  S
C1814      C2238   1.470       .  S
C1815      O1816   1.259       .  A
C1815      C2042   1.509       .  S
O1817      C1832   1.261       .  A
O1817     Al1825   1.915       .  S
C1818      O1828   1.259       .  A
C1818      O1819   1.246       .  A
C1818      C2109   1.485       .  S
O1819     Al1821   1.838       .  S
O1820     Al1821   1.887       .  S
Al1821     O1829   1.870       .  S
Al1821     O1831   1.885       .  S
Al1821     O1830   1.790       .  S
C1822      O1835   1.263       .  A
C1822      C2025   1.503       .  S
O1823      C1833   1.264       .  A
O1823     Al1825   1.909       .  S
O1824      C1837   1.264       .  A
Al1825     O1838   1.877       .  S
Al1825     O1835   1.917       .  S
O1826      C1833   1.264       .  A
O1827      C1836   1.260       .  A
O1827     Al1834   1.916       .  S
O1828     Al1834   1.920       .  S
O1829      C1836   1.256       .  A
O1830     Al1834   1.808       .  S
C1832      C2081   1.484       .  S
C1833      C2000   1.489       .  S
C1836      C2165   1.476       .  S
C1837      O1838   1.255       .  A
C1837      C2014   1.508       .  S
O1839      C1854   1.263       .  A
O1839     Al1847   1.926       .  S
C1840      O1850   1.263       .  A
C1840      O1841   1.257       .  A
C1840      C2221   1.497       .  S
O1841     Al1843   1.900       .  S
O1842     Al1843   1.881       .  S
Al1843     O1851   1.864       .  S
Al1843     O1853   1.883       .  S
Al1843     O1852   1.769       .  S
C1844      O1857   1.261       .  A
C1844      C2070   1.471       .  S
O1845      C1855   1.261       .  A
O1845     Al1847   1.906       .  S
O1846      C1859   1.264       .  A
Al1847     O1860   1.907       .  S
Al1847     O1857   1.920       .  S
O1848      C1855   1.264       .  A
O1849      C1858   1.268       .  A
O1849     Al1856   1.951       .  S
O1850     Al1856   1.917       .  S
O1851      C1858   1.255       .  A
O1852     Al1856   1.781       .  S
C1854      C2028   1.479       .  S
C1855      C1972   1.513       .  S
C1858      C2098   1.477       .  S
C1859      O1860   1.263       .  A
C1859      C1983   1.479       .  S
O1861      C1876   1.267       .  A
O1861     Al1869   1.942       .  S
C1862      O1872   1.269       .  A
C1862      O1863   1.252       .  A
C1862      C1969   1.478       .  S
O1863     Al1865   1.859       .  S
O1864      C1866   1.260       .  A
O1864     Al1865   1.906       .  S
Al1865     O1873   1.931       .  S
Al1865     O1875   1.881       .  S
Al1865     O1874   1.769       .  S
C1866      O1879   1.258       .  A
C1866      C1955   1.476       .  S
O1867      C1877   1.270       .  A
O1867     Al1869   1.941       .  S
O1868      C1881   1.269       .  A
O1868     Al1878   1.948       .  S
Al1869     O1882   1.889       .  S
Al1869     O1879   1.895       .  S
Al1869     O1874   1.782       .  S
O1870      C1877   1.260       .  A
O1870     Al1878   1.884       .  S
O1871      C1880   1.262       .  A
O1871     Al1878   1.905       .  S
O1872     Al1878   1.958       .  S
O1873      C1880   1.264       .  A
O1874     Al1878   1.782       .  S
O1875      C1876   1.259       .  A
C1877      C2252   1.497       .  S
C1880      C2011   1.484       .  S
C1881      O1882   1.258       .  A
C1881      C2196   1.505       .  S
O1883      C1898   1.260       .  A
O1883     Al1891   1.915       .  S
C1884      O1894   1.259       .  A
C1884      O1885   1.256       .  A
C1884      C2053   1.494       .  S
O1885     Al1887   1.885       .  S
O1886      C1888   1.256       .  A
O1886     Al1887   1.865       .  S
Al1887     O1895   1.871       .  S
Al1887     O1897   1.902       .  S
Al1887     O1896   1.775       .  S
C1888      O1901   1.263       .  A
O1889      C1899   1.264       .  A
O1889     Al1891   1.899       .  S
O1890      C1903   1.266       .  A
O1890     Al1900   1.927       .  S
Al1891     O1904   1.888       .  S
Al1891     O1901   1.937       .  S
Al1891     O1896   1.790       .  S
O1892      C1899   1.266       .  A
O1892     Al1900   1.917       .  S
O1893      C1902   1.269       .  A
O1893     Al1900   1.947       .  S
O1894     Al1900   1.908       .  S
O1895      C1902   1.257       .  A
O1896     Al1900   1.791       .  S
O1897      C1898   1.259       .  A
C1898      C4262   1.479   1_455  S
C1899      C2182   1.507       .  S
C1902      C1986   1.512       .  S
C1903      O1904   1.258       .  A
C1903      C2123   1.511       .  S
O1905      C1920   1.264       .  A
O1905     Al1913   1.925       .  S
C1906      O1916   1.265       .  A
C1906      O1907   1.257       .  A
C1906      C1997   1.509       .  S
O1907     Al1909   1.909       .  S
O1908      C1910   1.259       .  A
O1908     Al1909   1.881       .  S
Al1909     O1917   1.845       .  S
Al1909     O1919   1.888       .  S
Al1909     O1918   1.772       .  S
C1910      O1923   1.268       .  A
C1910      C4248   1.478   1_455  S
O1911      C1921   1.262       .  A
O1911     Al1913   1.907       .  S
O1912      C1925   1.266       .  A
O1912     Al1922   1.923       .  S
Al1913     O1926   1.927       .  S
Al1913     O1923   1.942       .  S
Al1913     O1918   1.779       .  S
O1914      C1921   1.266       .  A
O1914     Al1922   1.926       .  S
O1915      C1924   1.271       .  A
O1915     Al1922   1.967       .  S
O1916     Al1922   1.935       .  S
O1917      C1924   1.253       .  A
O1918     Al1922   1.781       .  S
O1919      C1920   1.256       .  A
C1920      C1930   1.485       .  S
C1921      C2140   1.516       .  S
C1924      C2039   1.479       .  S
C1925      O1926   1.268       .  A
C1925      C2263   1.498       .  S
C1927      C1928   1.409       .  A
C1927      C1932   1.414       .  A
C1928      C1929   1.401       .  A
C1928      C1933   1.453       .  S
C1929      C1930   1.417       .  A
C1929      C1936   1.449       .  S
C1930      C1931   1.415       .  A
C1931      C1932   1.418       .  A
C1931      C1934   1.449       .  S
C1933      N1940   1.157       .  T
C1934      N1939   1.157       .  T
C1935      N1937   1.157       .  T
C1936      N1938   1.157       .  T
C1941      C1942   1.414       .  A
C1941      C1946   1.415       .  A
C1942      C1943   1.417       .  A
C1942      C1947   1.449       .  S
C1943      C1944   1.411       .  A
C1943      C1950   1.449       .  S
C1944      C4214   1.477       .  S
C1944      C1945   1.409       .  A
C1945      C1946   1.402       .  A
C1945      C1948   1.454       .  S
C1946      C1949   1.453       .  S
C1947      N1954   1.157       .  T
C1948      N4257   1.157       .  T
C1950      N1952   1.157       .  T
N1953      C4252   1.157       .  T
C1955      C1956   1.409       .  A
C1955      C1960   1.414       .  A
C1956      C1957   1.407       .  A
C1956      C1961   1.451       .  S
C1957      C1958   1.410       .  A
C1957      C1964   1.449       .  S
C1958      C4202   1.477       .  S
C1958      C1959   1.407       .  A
C1959      C1960   1.412       .  A
C1959      C4266   1.448       .  S
C1960      C1963   1.451       .  S
C1961      N1968   1.157       .  T
C1962      C4263   1.448       .  S
C1962      N1967   1.157   1_655  T
C1963      N1965   1.157       .  T
C1964      N1966   1.157       .  T
C1969      C1970   1.406       .  A
C1969      C1974   1.407       .  A
C1970      C1971   1.410       .  A
C1970      C1975   1.452       .  S
C1971      C1972   1.424       .  A
C1971      C1978   1.450       .  S
C1972      C1973   1.427       .  A
C1973      C1974   1.416       .  A
C1973      C1976   1.451       .  S
C1974      C1977   1.452       .  S
C1975      N1982   1.157       .  T
C1976      N1981   1.158       .  T
C1977      N1979   1.157       .  T
C1978      N1980   1.156   1_556  T
C1983      C1984   1.407       .  A
C1983      C1988   1.405       .  A
C1984      C4289   1.416       .  A
C1984      C1989   1.451       .  S
C1985      C4288   1.416   1_455  A
C1985      C1986   1.424       .  A
C1985      C1992   1.449       .  S
C1986      C1987   1.430   1_455  A
C1987      C4292   1.411       .  A
C1987      C1990   1.453       .  S
C1988      C4291   1.411       .  A
C1988      C1991   1.453       .  S
C1989      N1996   1.157       .  T
C1990      N1995   1.158       .  T
C1991      N1993   1.157       .  T
C1992      N1994   1.158       .  T
C1997      C1998   1.420       .  A
C1997      C4306   1.427   1_455  A
C1998      C4303   1.420   1_455  A
C1998      C2003   1.448       .  S
C1999      C4302   1.419       .  A
C1999      C2000   1.412       .  A
C1999      C2006   1.451       .  S
C2000      C2001   1.410       .  A
C2001      C2002   1.408       .  A
C2001      C2004   1.455       .  S
C2002      C4301   1.425       .  A
C2002      C4309   1.453       .  S
C2003      N2010   1.157       .  T
C2004      N2009   1.157       .  T
C2005      C4306   1.453   1_455  S
C2005      N2007   1.158       .  T
C2006      N2008   1.157       .  T
C2011      C2012   1.409       .  A
C2012      C2017   1.449       .  S
C2013      C2014   1.422       .  A
C2013      C2020   1.450       .  S
C2014      C2015   1.427       .  A
C2015      C2016   1.408       .  A
C2015      C2018   1.454       .  S
C2016      C2019   1.452       .  S
C2017      N2024   1.157       .  T
C2018      N2023   1.157       .  T
C2019      N2021   1.157       .  T
C2025      C2026   1.423       .  A
C2026      C2027   1.415       .  A
C2026      C2031   1.451       .  S
C2027      C2028   1.409       .  A
C2027      C2034   1.451       .  S
C2029      C2030   1.408       .  A
C2029      C2032   1.451       .  S
C2030      C2033   1.451       .  S
C2031      N2038   1.157       .  T
C2032      N2037   1.157       .  T
C2033      N2035   1.157       .  T
C2034      N2036   1.157       .  T
C2039      C2040   1.409       .  A
C2039      C2044   1.410       .  A
C2040      C2041   1.418       .  A
C2040      C2045   1.450       .  S
C2041      C2042   1.423       .  A
C2041      C2048   1.450       .  S
C2042      C2043   1.425       .  A
C2043      C2044   1.406       .  A
C2043      C2046   1.454       .  S
C2044      C2047   1.455       .  S
C2045      N2052   1.157       .  T
C2046      N2051   1.157       .  T
C2047      N2049   1.158       .  T
C2053      C2058   1.415       .  A
C2054      C2055   1.415       .  A
C2054      C2059   1.452       .  S
C2055      C2056   1.425       .  A
C2055      C2062   1.452       .  S
C2057      C2058   1.410   1_545  A
C2057      C2060   1.451       .  S
C2058      C2061   1.454       .  S
C2059      N2066   1.158       .  T
C2061      N2063   1.157       .  T
C2062      N2064   1.157       .  T
C2067      C2068   1.415       .  A
C2067      C2072   1.415       .  A
C2069      C2076   1.449       .  S
C2070      C2071   1.407       .  A
C2071      C2072   1.396       .  A
C2071      C2074   1.453       .  S
C2072      C2075   1.451       .  S
C2073      N2080   1.157       .  T
C2074      N2079   1.157   1_556  T
C2075      N2077   1.155       .  T
C2076      N2078   1.157       .  T
C2081      C2082   1.414       .  A
C2082      C2083   1.416       .  A
C2082      C2087   1.451       .  S
C2083      C2084   1.421       .  A
C2083      C2090   1.450       .  S
C2085      C2086   1.399       .  A
C2085      C2088   1.454       .  S
C2086      C2089   1.447       .  S
C2087      N2094   1.157       .  T
C2088      N2093   1.157       .  T
C2089      N2091   1.157       .  T
C2090      N2092   1.157       .  T
C2095      C2096   1.416       .  A
C2095      C2100   1.421       .  A
C2096      C2097   1.411       .  A
C2096      C2101   1.451       .  S
C2097      C2098   1.412       .  A
C2097      C2104   1.452       .  S
C2098      C2099   1.405       .  A
C2099      C2100   1.411       .  A
C2099      C2102   1.451       .  S
C2100      C4407   1.450       .  S
C2101      N2108   1.158       .  T
C2102      N4411   1.158       .  T
C2103      C4404   1.450   1_455  S
C2103      N2105   1.157       .  T
C2104      N2106   1.157       .  T
N2107      C4406   1.158       .  T
C2109      C2110   1.416       .  A
C2109      C2114   1.410       .  A
C2110      C2111   1.404       .  A
C2110      C2115   1.456       .  S
C2111      C2112   1.424       .  A
C2111      C2118   1.455       .  S
C2112      C2113   1.425       .  A
C2113      C2114   1.415       .  A
C2113      C4420   1.452       .  S
C2114      C2117   1.451       .  S
C2115      N2122   1.157       .  T
C2116      C4417   1.452   1_455  S
C2116      N2121   1.157       .  T
C2117      N4423   1.158       .  T
C2118      N2120   1.158       .  T
N2119      C4421   1.158       .  T
C2123      C2124   1.428       .  A
C2123      C2128   1.423       .  A
C2124      C2125   1.407       .  A
C2124      C2129   1.453       .  S
C2125      C2126   1.406       .  A
C2125      C2132   1.454       .  S
C2126      C2127   1.408       .  A
C2127      C2128   1.420       .  A
C2127      C2130   1.449       .  S
C2128      C2131   1.448       .  S
C2129      N2136   1.157       .  T
C2130      N2135   1.157       .  T
C2131      N2133   1.157       .  T
C2132      N2134   1.157       .  T
C2137      C2138   1.410       .  A
C2137      C2142   1.411       .  A
C2138      C2139   1.419       .  A
C2138      C2143   1.451       .  S
C2139      C2140   1.428       .  A
C2139      C2146   1.451       .  S
C2140      C2141   1.423       .  A
C2141      C2142   1.412       .  A
C2141      C2144   1.450       .  S
C2142      C2145   1.453       .  S
C2143      N4454   1.158       .  T
C2144      N2149   1.157       .  T
C2145      N2147   1.157       .  T
C2146      N2148   1.157       .  T
N2150      C4447   1.158       .  T
C2151      C2152   1.415       .  A
C2151      C2156   1.426       .  A
C2152      C2153   1.416       .  A
C2152      C2157   1.450       .  S
C2153      C2154   1.417       .  A
C2154      C2155   1.412       .  A
C2155      C2156   1.410       .  A
C2155      C2158   1.454       .  S
C2156      C2159   1.454       .  S
C2158      N2163   1.157       .  T
C2159      N2161   1.158       .  T
C2160      N2162   1.157       .  T
C2165      C2166   1.408       .  A
C2165      C2170   1.408       .  A
C2166      C2167   1.408       .  A
C2166      C2171   1.454       .  S
C2167      C2168   1.420       .  A
C2168      C2169   1.418       .  A
C2169      C2170   1.414       .  A
C2169      C2172   1.450       .  S
C2170      C2173   1.449       .  S
C2171      N2178   1.157       .  T
C2172      N2177   1.157       .  T
C2173      N2175   1.157       .  T
C2174      N2176   1.158       .  T
C2179      C2180   1.416       .  A
C2179      C2184   1.411       .  A
C2180      C2181   1.411       .  A
C2180      C2185   1.454       .  S
C2181      C2182   1.422       .  A
C2181      C2188   1.452       .  S
C2182      C2183   1.422       .  A
C2183      C2184   1.417       .  A
C2185      N2192   1.157       .  T
C2186      N2191   1.157       .  T
C2187      N2189   1.157       .  T
C2188      N2190   1.158       .  T
C2193      C2194   1.411       .  A
C2193      C2198   1.413       .  A
C2194      C2195   1.417       .  A
C2194      C2199   1.452       .  S
C2195      C2196   1.424       .  A
C2195      C2202   1.452       .  S
C2196      C2197   1.417       .  A
C2197      C2198   1.415       .  A
C2197      C2200   1.451       .  S
C2199      N2206   1.157       .  T
C2201      N2203   1.157       .  T
C2202      N2204   1.157       .  T
C2207      C2208   1.418       .  A
C2207      C2212   1.419       .  A
C2208      C2209   1.396       .  A
C2208      C2213   1.449       .  S
C2209      C2210   1.399       .  A
C2209      C2216   1.447       .  S
C2210      C2211   1.410       .  A
C2211      C2212   1.419       .  A
C2211      C2214   1.448       .  S
C2212      C2215   1.446       .  S
C2213      N2220   1.157       .  T
C2214      N2219   1.157       .  T
C2215      N2217   1.157       .  T
C2216      N2218   1.155       .  T
C2221      C2222   1.423       .  A
C2221      C2226   1.416       .  A
C2222      C2223   1.409       .  A
C2222      C2227   1.454       .  S
C2223      C2224   1.411       .  A
C2223      C2230   1.454       .  S
C2224      C2225   1.414       .  A
C2225      C2226   1.414       .  A
C2225      C2228   1.452       .  S
C2226      C2229   1.450       .  S
C2227      N2234   1.157       .  T
C2228      N2233   1.157       .  T
C2229      N2231   1.157       .  T
C2230      N2232   1.157       .  T
C2235      C2236   1.429       .  A
C2235      C2240   1.423       .  A
C2236      C2237   1.402       .  A
C2236      C2241   1.453       .  S
C2237      C2238   1.400       .  A
C2237      C2244   1.454       .  S
C2238      C2239   1.407       .  A
C2239      C2240   1.415       .  A
C2239      C2242   1.450       .  S
C2240      C2243   1.451       .  S
C2241      N2248   1.158       .  T
C2242      N2247   1.158       .  T
C2243      N2245   1.157       .  T
C2244      N2246   1.156       .  T
C2249      C2250   1.413       .  A
C2249      C2254   1.412       .  A
C2250      C2251   1.408       .  A
C2250      C2255   1.454       .  S
C2251      C2252   1.419       .  A
C2251      C2258   1.451       .  S
C2252      C2253   1.418       .  A
C2253      C2254   1.414       .  A
C2253      C2256   1.451       .  S
C2254      C2257   1.450       .  S
C2255      N2262   1.158       .  T
C2256      N2261   1.157       .  T
C2257      N2259   1.157       .  T
C2258      N2260   1.157       .  T
C2263      C2264   1.410       .  A
C2263      C2268   1.414       .  A
C2264      C2265   1.406       .  A
C2264      C2269   1.446       .  S
C2265      C2266   1.422       .  A
C2265      C2272   1.454       .  S
C2266      C2267   1.420       .  A
C2267      C2268   1.421       .  A
C2267      C2270   1.450       .  S
C2268      C2271   1.445       .  S
C2269      N2276   1.154       .  T
C2270      N2275   1.158       .  T
C2271      N2273   1.156       .  T
C2272      N2274   1.157       .  T
C2277      C2278   1.404       .  A
C2277      C2282   1.408       .  A
C2278      C2279   1.401       .  A
C2278      C2283   1.454       .  S
C2279      C2280   1.423       .  A
C2279      C2286   1.446       .  S
C2280      C2281   1.423       .  A
C2281      C2282   1.416       .  A
C2281      C2284   1.449       .  S
C2282      C2285   1.448       .  S
C2283      N2290   1.156       .  T
C2284      N2289   1.157       .  T
C2285      N2287   1.157       .  T
C2286      N2288   1.155       .  T
C2291      C2292   1.421       .  A
C2291      C2296   1.412       .  A
C2292      C2293   1.407       .  A
C2292      C2297   1.446       .  S
C2293      C2294   1.400       .  A
C2293      C2300   1.448       .  S
C2294      C2295   1.407       .  A
C2295      C2296   1.412       .  A
C2295      C2298   1.450       .  S
C2296      C2299   1.448       .  S
C2297      N2304   1.156       .  T
C2298      N2303   1.157       .  T
C2299      N2301   1.157       .  T
C2300      N2302   1.156       .  T
O2305      C2320   1.258       .  A
O2305     Al2313   1.898       .  S
C2306      O2316   1.259       .  A
C2306      O2307   1.258       .  A
C2306      C2825   1.489       .  S
O2307     Al2309   1.895       .  S
O2308      C2310   1.255       .  A
O2308     Al2309   1.861       .  S
Al2309     O2317   1.862       .  S
Al2309     O2319   1.916       .  S
Al2309     O2318   1.769       .  S
C2310      O2323   1.261       .  A
C2310      C2853   1.487       .  S
O2311      C2321   1.263       .  A
O2311     Al2313   1.894       .  S
O2312      C2325   1.265       .  A
O2312     Al2322   1.918       .  S
Al2313     O2326   1.875       .  S
Al2313     O2323   1.932       .  S
Al2313     O2318   1.787       .  S
O2314      C2321   1.270       .  A
O2314     Al2322   1.931       .  S
O2315      C2324   1.273       .  A
O2315     Al2322   1.964       .  S
O2316     Al2322   1.909       .  S
O2317      C2324   1.255       .  A
O2318     Al2322   1.784       .  S
O2319      C2320   1.263       .  A
C2320      C2870   1.473       .  S
C2321      C2800   1.490       .  S
C2324      C2842   1.512       .  S
C2325      O2326   1.256       .  A
C2325      C2811   1.499       .  S
O2327      C2342   1.258       .  A
O2327     Al2335   1.901       .  S
C2328      O3490   1.264       .  A
C2328      O2329   1.256       .  A
C2328      C2755   1.506       .  S
O2329     Al2331   1.892       .  S
O2330      C2332   1.259       .  A
O2330     Al2331   1.875       .  S
Al2331     O2339   1.861       .  S
Al2331     O2341   1.902       .  S
Al2331     O2340   1.774       .  S
C2332      O2345   1.263       .  A
C2332      C2786   1.499       .  S
O2333      C3495   1.258       .  A
O2333     Al2335   1.886       .  S
O2334      C2347   1.265       .  A
O2334     Al2344   1.926   1_545  S
Al2335     O2348   1.891       .  S
Al2335     O2345   1.927       .  S
Al2335     O2340   1.779       .  S
O2336      C2343   1.268       .  A
O2336     Al2344   1.938   1_545  S
O2337      C3498   1.269       .  A
O2337     Al2344   1.957       .  S
O2338      C3480   1.264       .  A
O2338     Al2344   1.927       .  S
O2339      C2346   1.255       .  A
O2340     Al3496   1.790       .  S
O2341      C2342   1.258       .  A
C2342      C2856   1.480       .  S
C2343      O3485   1.258   1_545  A
C2343      C2730   1.516       .  S
Al2344     O3492   1.789       .  S
C2346      O3489   1.269       .  A
C2346      C2769   1.483       .  S
C2347      O3500   1.260   1_545  A
C2347      C2744   1.513       .  S
O2348      C3499   1.260       .  A
O2349      C2364   1.267       .  A
O2349     Al2357   1.926       .  S
C2350      O2351   1.254       .  A
C2350      C2713   1.486       .  S
O2351     Al2353   1.885       .  S
O2352      C2354   1.267       .  A
O2352     Al2353   1.930       .  S
Al2353     O2361   1.888       .  S
Al2353     O2363   1.896       .  S
Al2353     O2362   1.780       .  S
C2354      O2367   1.257       .  A
C2354      C2867   1.496       .  S
O2355     Al2357   1.900       .  S
O2356      C2369   1.257       .  A
O2356     Al2366   1.909   1_655  S
Al2357     O2370   1.898       .  S
Al2357     O2367   1.893       .  S
Al2357     O2362   1.789       .  S
O2358      C2365   1.264       .  A
O2358     Al2366   1.903   1_655  S
O2359     Al2366   1.923       .  S
O2360     Al2366   1.914       .  S
O2361      C2368   1.261       .  A
O2363      C2364   1.259       .  A
C2364      C2783   1.489       .  S
C2365      C2688   1.510       .  S
C2368      C2702   1.486       .  S
C2369      C2671   1.497       .  S
O2371      C2386   1.260       .  A
O2371     Al2379   1.928       .  S
C2372      O2382   1.264       .  A
C2372      O2373   1.253       .  A
C2372      C2727   1.494       .  S
O2373     Al2375   1.881       .  S
O2374      C2952   1.265   1_554  A
O2374     Al2375   1.886       .  S
Al2375     O2383   1.873       .  S
Al2375     O2385   1.861       .  S
Al2375     O2384   1.769       .  S
C2376      O2950   1.265       .  A
C2376      O2389   1.259       .  A
C2376      C2660   1.495       .  S
O2377      C2387   1.255       .  A
O2377     Al2379   1.881       .  S
O2378      C2391   1.267       .  A
O2378     Al2964   1.932       .  S
Al2379     O2392   1.876       .  S
Al2379     O2389   1.901       .  S
Al2379     O2960   1.789       .  S
O2380      C2387   1.260       .  A
O2380     Al2964   1.907       .  S
O2381      C2390   1.264       .  A
O2381     Al2388   1.931       .  S
O2382     Al2388   1.929       .  S
O2383      C2390   1.261       .  A
O2384     Al2955   1.792   1_554  S
O2384     Al2388   1.791       .  S
O2385      C2962   1.253   1_554  A
C2386      O2961   1.254       .  A
C2386      C2643   1.488       .  S
C2387      C2632   1.509       .  S
Al2388     O2954   1.920   1_554  S
Al2388     O2956   1.912   1_554  S
C2390      C2814   1.480       .  S
C2391      O2392   1.257       .  A
C2391      C2618   1.515       .  S
O2393      C2408   1.262       .  A
O2393     Al2401   1.916       .  S
C2394      O2404   1.261       .  A
C2394      O2395   1.251       .  A
C2394      C2685   1.490       .  S
O2395     Al2397   1.864       .  S
O2396      C2974   1.263   1_554  A
O2396     Al2397   1.901       .  S
Al2397     O2405   1.869       .  S
Al2397     O2407   1.893       .  S
Al2397     O2406   1.782       .  S
C2398      O2972   1.260       .  A
C2398      O2411   1.261       .  A
C2398      C2601   1.497       .  S
O2399      C2409   1.264       .  A
O2399     Al2401   1.911       .  S
O2400      C2413   1.261       .  A
O2400     Al2986   1.918       .  S
Al2401     O2414   1.881       .  S
Al2401     O2411   1.916       .  S
Al2401     O2982   1.791       .  S
O2402      C2409   1.263       .  A
O2402     Al2986   1.890       .  S
O2403      C2412   1.265       .  A
O2403     Al2410   1.939       .  S
O2404     Al2410   1.923       .  S
O2405      C2412   1.258       .  A
O2406     Al2977   1.784   1_554  S
O2406     Al2410   1.796       .  S
O2407      C2984   1.255   1_554  A
C2408      O2983   1.255       .  A
C2408      C2657   1.484       .  S
C2409      C2576   1.483       .  S
Al2410     O2976   1.929   1_554  S
Al2410     O2978   1.900   1_554  S
C2412      C2741   1.483       .  S
C2413      O2414   1.254       .  A
C2413      C2590   1.508       .  S
O2415      C2430   1.260       .  A
O2415     Al2423   1.912       .  S
C2416      O2426   1.264       .  A
C2416      O2417   1.255       .  A
C2416      C2797   1.501       .  S
O2417     Al2419   1.895       .  S
O2418      C2996   1.258   1_554  A
O2418     Al2419   1.885       .  S
Al2419     O2427   1.858       .  S
Al2419     O2429   1.872   1_554  S
Al2419     O2428   1.772   1_554  S
C2420      O2994   1.257       .  A
C2420      O2433   1.261       .  A
C2420      C2646   1.472       .  S
O2421      C2431   1.259       .  A
O2421     Al2423   1.894       .  S
O2422      C2435   1.263       .  A
O2422     Al3008   1.905       .  S
Al2423     O2436   1.906       .  S
Al2423     O2433   1.925       .  S
Al2423     O3004   1.789       .  S
O2424      C2431   1.266       .  A
O2424     Al3008   1.927       .  S
O2425      C2434   1.269       .  A
O2425     Al2432   1.955       .  S
O2426     Al2432   1.925       .  S
O2427      C2434   1.253       .  A
O2428     Al2999   1.792       .  S
O2428     Al2432   1.786   1_556  S
O2429      C3006   1.254       .  A
C2430      O3005   1.258       .  A
C2430      C2604   1.474       .  S
C2431      C2548   1.511       .  S
Al2432     O2998   1.910   1_554  S
Al2432     O3000   1.922   1_554  S
C2434      C2674   1.478       .  S
C2435      O2436   1.262       .  A
C2435      C2559   1.477       .  S
O2437      C2452   1.266       .  A
O2437     Al2445   1.945       .  S
C2438      O2448   1.269       .  A
C2438      O2439   1.252       .  A
C2438      C2545   1.481       .  S
O2439     Al2441   1.861       .  S
O2440      C2442   1.261       .  A
O2440     Al2441   1.907       .  S
Al2441     O2449   1.928       .  S
Al2441     O2451   1.884       .  S
Al2441     O2450   1.773       .  S
C2442      O2455   1.256       .  A
C2442      C2531   1.471       .  S
O2443      C2453   1.268       .  A
O2443     Al2445   1.934       .  S
O2444      C2457   1.270       .  A
O2444     Al2454   1.950       .  S
Al2445     O2458   1.882       .  S
Al2445     O2455   1.889       .  S
Al2445     O2450   1.784       .  S
O2446      C2453   1.262       .  A
O2446     Al2454   1.897       .  S
O2447      C2456   1.261       .  A
O2447     Al2454   1.904       .  S
O2448     Al2454   1.961       .  S
O2449      C2456   1.263       .  A
O2450     Al2454   1.781       .  S
O2451      C2452   1.258       .  A
C2452      C3669   1.484       .  S
C2453      C2828   1.500       .  S
C2456      C2587   1.484       .  S
C2457      O2458   1.258       .  A
C2457      C2772   1.493       .  S
O2459      C2474   1.259       .  A
O2459     Al2467   1.904       .  S
C2460      O2470   1.260       .  A
C2460      O2461   1.259       .  A
C2460      C2629   1.494       .  S
O2461     Al2463   1.896       .  S
O2462      C2464   1.257       .  A
O2462     Al2463   1.869       .  S
Al2463     O2471   1.869       .  S
Al2463     O2473   1.903       .  S
Al2463     O2472   1.772       .  S
C2464      O2477   1.261       .  A
C2464      C3655   1.493       .  S
O2465      C2475   1.260       .  A
O2465     Al2467   1.886       .  S
O2466      C2479   1.265       .  A
O2466     Al2476   1.926       .  S
Al2467     O2480   1.887       .  S
Al2467     O2477   1.934       .  S
Al2467     O2472   1.786       .  S
O2468      C2475   1.269       .  A
O2468     Al2476   1.939       .  S
O2469      C2478   1.269       .  A
O2469     Al2476   1.949       .  S
O2470     Al2476   1.906       .  S
O2471      C2478   1.256       .  A
O2472     Al2476   1.790       .  S
O2473      C2474   1.261       .  A
C2475      C2758   1.518       .  S
C2478      C2562   1.507       .  S
C2479      O2480   1.258       .  A
C2479      C2699   1.508       .  S
O2481      C2496   1.264       .  A
O2481     Al2489   1.921       .  S
C2482      O2492   1.264       .  A
C2482      O2483   1.256       .  A
C2482      C2573   1.502       .  S
O2483     Al2485   1.906       .  S
O2484      C2486   1.259       .  A
O2484     Al2485   1.885       .  S
Al2485     O2493   1.848       .  S
Al2485     O2495   1.886       .  S
Al2485     O2494   1.769       .  S
C2486      O2499   1.267       .  A
O2487      C2497   1.260       .  A
O2487     Al2489   1.898       .  S
O2488      C2501   1.267       .  A
O2488     Al2498   1.927       .  S
Al2489     O2502   1.929       .  S
Al2489     O2499   1.946       .  S
Al2489     O2494   1.780       .  S
O2490      C2497   1.268       .  A
O2490     Al2498   1.932       .  S
O2491      C2500   1.272       .  A
O2491     Al2498   1.971       .  S
O2492     Al2498   1.930       .  S
O2493      C2500   1.253       .  A
O2494     Al2498   1.782       .  S
O2495      C2496   1.257       .  A
C2496      C2506   1.480       .  S
C2497      C2716   1.509       .  S
C2500      C2615   1.481       .  S
C2501      O2502   1.268       .  A
C2501      C2839   1.501       .  S
C2503      C3616   1.492   1_545  S
C2503      C2504   1.406       .  A
C2503      C2508   1.413       .  A
C2504      C2505   1.399       .  A
C2504      C2509   1.450       .  S
C2505      C2506   1.415       .  A
C2505      C2512   1.448       .  S
C2506      C2507   1.415       .  A
C2507      C2508   1.418       .  A
C2507      C2510   1.449       .  S
C2508      C3663   1.447       .  S
C2509      N2516   1.156       .  T
C2510      N2515   1.157       .  T
C2511      C3660   1.447       .  S
C2511      N2513   1.157       .  T
C2512      N2514   1.156       .  T
C2517      C3604   1.484   1_545  S
C2517      C2518   1.413       .  A
C2517      C2522   1.414       .  A
C2518      C2519   1.419       .  A
C2518      C2523   1.449       .  S
C2519      C2520   1.413       .  A
C2519      C2526   1.448       .  S
C2520      C2521   1.412       .  A
C2521      C2522   1.404       .  A
C2521      C2524   1.454   1_655  S
C2522      C2525   1.453   1_545  S
C2523      N2530   1.157       .  T
C2525      N3679   1.157       .  T
C2526      N2528   1.157       .  T
N2527      C3677   1.157       .  T
C2531      C2532   1.408       .  A
C2531      C2536   1.412       .  A
C2532      C2533   1.408       .  A
C2532      C2537   1.451       .  S
C2533      C2534   1.411       .  A
C2533      C2540   1.450       .  S
C2534      C2535   1.406       .  A
C2535      C2536   1.408       .  A
C2536      C2539   1.451       .  S
C2537      N2544   1.157       .  T
C2538      N2543   1.156       .  T
C2539      N2541   1.157       .  T
C2540      N2542   1.157       .  T
C2545      C2546   1.409       .  A
C2545      C2550   1.407       .  A
C2546      C2547   1.411       .  A
C2546      C2551   1.451       .  S
C2547      C2548   1.422       .  A
C2547      C2554   1.451       .  S
C2548      C2549   1.428       .  A
C2549      C2550   1.416       .  A
C2549      C2552   1.451       .  S
C2550      C2553   1.452       .  S
C2551      N2558   1.157       .  T
C2552      N2557   1.158       .  T
C2553      N2555   1.157       .  T
C2554      N2556   1.157       .  T
C2559      C2560   1.409       .  A
C2559      C2564   1.405       .  A
C2560      C2565   1.451       .  S
C2561      C2562   1.421       .  A
C2561      C2568   1.449       .  S
C2562      C2563   1.428       .  A
C2563      C2566   1.454       .  S
C2564      C2567   1.453       .  S
C2565      N2572   1.157       .  T
C2566      N2571   1.158       .  T
C2567      N2569   1.157       .  T
C2568      N2570   1.158       .  T
C2573      C2574   1.419       .  A
C2574      C2579   1.448       .  S
C2575      C2576   1.411       .  A
C2575      C2582   1.450       .  S
C2576      C2577   1.409       .  A
C2577      C2578   1.405       .  A
C2577      C2580   1.456       .  S
C2579      N2586   1.157       .  T
C2580      N2585   1.157       .  T
C2581      N2583   1.158       .  T
C2582      N2584   1.157       .  T
C2587      C2588   1.408       .  A
C2587      C3744   1.406       .  A
C2588      C3741   1.418       .  A
C2588      C2593   1.449       .  S
C2589      C3740   1.419   1_545  A
C2589      C2590   1.423       .  A
C2589      C2596   1.450   1_545  S
C2590      C2591   1.427       .  A
C2591      C2592   1.409       .  A
C2591      C2594   1.453       .  S
C2592      C3739   1.406   1_545  A
C2592      C2595   1.452       .  S
C2593      N2600   1.157       .  T
C2594      N2599   1.157       .  T
C2595      N2597   1.157       .  T
C2596      N3750   1.158       .  T
N2598      C3748   1.158       .  T
C2601      C2602   1.421       .  A
C2601      C3182   1.417       .  A
C2602      C2603   1.413       .  A
C2602      C2607   1.450       .  S
C2603      C2604   1.408       .  A
C2603      C2610   1.451       .  S
C2604      C3181   1.407       .  A
C2605      C3180   1.409       .  A
C2605      C2606   1.410       .  A
C2605      C2608   1.452   1_556  S
C2606      C3177   1.418       .  A
C2606      C2609   1.449   1_556  S
C2607      N2614   1.157       .  T
C2608      N2613   1.157       .  T
C2609      N2611   1.156       .  T
C2610      N2612   1.157       .  T
C2615      C2616   1.410       .  A
C2615      C2620   1.408       .  A
C2616      C2617   1.419       .  A
C2616      C2621   1.451       .  S
C2617      C2618   1.424       .  A
C2617      C2624   1.450       .  S
C2618      C2619   1.430       .  A
C2619      C2620   1.408       .  A
C2619      C2622   1.455       .  S
C2620      C2623   1.455       .  S
C2621      N2628   1.157       .  T
C2622      N2627   1.157       .  T
C2623      N2625   1.158       .  T
C2624      N3202   1.158       .  T
N2626      C3200   1.158   1_554  T
C2629      C3782   1.412       .  A
C2629      C2634   1.414       .  A
C2630      C3781   1.412       .  A
C2630      C2631   1.413   1_565  A
C2630      C2635   1.451       .  S
C2631      C2632   1.426       .  A
C2631      C2638   1.453       .  S
C2632      C3785   1.424       .  A
C2633      C3784   1.424       .  A
C2633      C2634   1.411       .  A
C2633      C2636   1.452       .  S
C2634      C2637   1.454       .  S
C2635      N2642   1.157       .  T
C2636      N3217   1.158       .  T
C2637      N2639   1.157       .  T
C2638      N2640   1.157       .  T
N2641      C3212   1.158       .  T
C2643      C2644   1.416       .  A
C2643      C2648   1.417       .  A
C2644      C3221   1.420       .  A
C2644      C3225   1.447       .  S
C2645      C3220   1.418       .  A
C2645      C3222   1.412       .  A
C2645      C2652   1.449       .  S
C2646      C3221   1.412       .  A
C2646      C2647   1.404       .  A
C2647      C2648   1.397       .  A
C2647      C2650   1.453       .  S
C2648      C2651   1.450       .  S
C2649      C3220   1.448       .  S
C2649      N2656   1.158       .  T
C2650      N2655   1.156       .  T
C2651      N2653   1.155       .  T
C2652      N2654   1.157       .  T
C2657      C2658   1.412       .  A
C2657      C3238   1.419       .  A
C2658      C2659   1.416       .  A
C2658      C2663   1.451       .  S
C2659      C2660   1.424       .  A
C2659      C2666   1.450       .  S
C2660      C3237   1.406       .  A
C2661      C3236   1.406   1_554  A
C2661      C2662   1.399       .  A
C2661      C2664   1.454       .  S
C2662      C3233   1.420   1_554  A
C2662      C2665   1.449       .  S
C2663      N2670   1.157       .  T
C2664      N2669   1.157       .  T
C2665      N2667   1.157       .  T
C2666      N2668   1.157       .  T
C2671      C2672   1.417       .  A
C2671      C2676   1.420       .  A
C2672      C2673   1.412       .  A
C2672      C2677   1.451       .  S
C2673      C2674   1.413       .  A
C2673      C2680   1.453       .  S
C2674      C2675   1.405       .  A
C2675      C2676   1.412       .  A
C2675      C2678   1.451       .  S
C2677      N2684   1.158       .  T
C2679      N2681   1.156       .  T
C2680      N2682   1.157       .  T
C2685      C2686   1.414       .  A
C2685      C2690   1.411       .  A
C2686      C2687   1.408       .  A
C2686      C2691   1.455       .  S
C2687      C2688   1.425       .  A
C2687      C2694   1.454       .  S
C2688      C2689   1.426       .  A
C2689      C2690   1.416       .  A
C2690      C2693   1.451       .  S
C2691      N2698   1.157       .  T
C2692      N2697   1.157       .  T
C2694      N2696   1.158       .  T
C2699      C2700   1.426       .  A
C2699      C2704   1.422       .  A
C2700      C2701   1.405       .  A
C2700      C2705   1.454       .  S
C2701      C2702   1.406       .  A
C2701      C2708   1.452       .  S
C2702      C2703   1.408       .  A
C2703      C2704   1.420       .  A
C2703      C2706   1.448       .  S
C2704      C2707   1.448       .  S
C2705      N2712   1.157       .  T
C2706      N2711   1.157       .  T
C2707      N2709   1.157       .  T
C2708      N2710   1.156       .  T
C2713      C2714   1.409       .  A
C2713      C2718   1.410       .  A
C2714      C2715   1.417       .  A
C2714      C2719   1.451       .  S
C2715      C2716   1.428       .  A
C2715      C2722   1.451       .  S
C2716      C2717   1.419       .  A
C2717      C2718   1.410       .  A
C2717      C2720   1.450       .  S
C2718      C2721   1.452       .  S
C2720      N2725   1.157       .  T
C2721      N2723   1.156       .  T
C2722      N2724   1.157       .  T
C2727      C2728   1.409       .  A
C2727      C2732   1.416       .  A
C2728      C2729   1.416       .  A
C2728      C2733   1.453       .  S
C2729      C2730   1.431       .  A
C2729      C3888   1.451   1_545  S
C2730      C2731   1.423       .  A
C2731      C2732   1.413       .  A
C2731      C2734   1.453       .  S
C2732      C2735   1.453       .  S
C2733      N3892   1.157       .  T
C2734      N2739   1.157       .  T
C2735      N2737   1.158       .  T
C2736      C3881   1.451       .  S
C2736      N2738   1.157       .  T
N2740      C3885   1.157       .  T
C2741      C2742   1.405       .  A
C2741      C2746   1.407       .  A
C2742      C2743   1.408       .  A
C2742      C2747   1.455       .  S
C2743      C2744   1.430       .  A
C2743      C3902   1.453       .  S
C2744      C2745   1.426       .  A
C2745      C2746   1.419       .  A
C2745      C2748   1.450       .  S
C2746      C2749   1.450       .  S
C2747      N2754   1.157       .  T
C2748      N2753   1.158       .  T
C2749      N2751   1.157       .  T
C2750      C3895   1.453       .  S
C2750      N2752   1.157       .  T
C2755      C2756   1.420       .  A
C2755      C2760   1.414       .  A
C2756      C2757   1.417       .  A
C2756      C2761   1.454       .  S
C2757      C2758   1.424       .  A
C2757      C2764   1.452       .  S
C2758      C2759   1.427       .  A
C2759      C2760   1.416       .  A
C2759      C3914   1.454       .  S
C2760      C3915   1.448       .  S
C2761      N2768   1.157       .  T
C2762      C3911   1.454       .  S
C2762      N2767   1.157       .  T
C2763      C3912   1.448       .  S
C2763      N2765   1.156   1_565  T
C2764      N2766   1.158       .  T
C2769      C2770   1.411       .  A
C2769      C2774   1.410       .  A
C2770      C2771   1.411       .  A
C2770      C2775   1.454       .  S
C2771      C2772   1.418       .  A
C2771      C2778   1.452       .  S
C2772      C2773   1.415       .  A
C2773      C2774   1.417       .  A
C2773      C2776   1.449       .  S
C2774      C3929   1.449       .  S
C2775      N2782   1.158       .  T
C2776      N3933   1.157       .  T
C2777      C3926   1.449       .  S
C2777      N2779   1.157       .  T
C2778      N2780   1.157       .  T
N2781      C3928   1.157       .  T
C2783      C2784   1.418       .  A
C2783      C2788   1.414       .  A
C2784      C2785   1.399       .  A
C2784      C2789   1.450       .  S
C2785      C2786   1.410       .  A
C2785      C2792   1.451       .  S
C2786      C2787   1.420       .  A
C2787      C2788   1.418       .  A
C2787      C2790   1.449       .  S
C2788      C2791   1.447       .  S
C2789      N2796   1.157       .  T
C2790      N2795   1.157       .  T
C2791      N2793   1.157       .  T
C2792      N2794   1.156       .  T
C2797      C2798   1.425       .  A
C2797      C2802   1.417       .  A
C2798      C2799   1.409       .  A
C2798      C2803   1.454       .  S
C2799      C2800   1.412       .  A
C2799      C2806   1.454       .  S
C2800      C2801   1.414       .  A
C2801      C2802   1.416       .  A
C2801      C2804   1.452       .  S
C2802      C2805   1.449       .  S
C2803      N2810   1.157       .  T
C2804      N2809   1.157       .  T
C2805      N2807   1.157       .  T
C2806      N2808   1.158       .  T
C2811      C2812   1.427       .  A
C2811      C2816   1.420       .  A
C2812      C2813   1.401       .  A
C2812      C2817   1.455       .  S
C2813      C2814   1.404       .  A
C2813      C2820   1.453       .  S
C2814      C2815   1.411       .  A
C2815      C2816   1.417       .  A
C2815      C2818   1.449       .  S
C2816      C2819   1.450       .  S
C2817      N2824   1.158       .  T
C2818      N2823   1.158       .  T
C2819      N2821   1.157       .  T
C2820      N2822   1.155   1_554  T
C2825      C2826   1.412       .  A
C2825      C2830   1.412       .  A
C2826      C2827   1.411       .  A
C2826      C2831   1.453       .  S
C2827      C2828   1.419       .  A
C2827      C2834   1.451       .  S
C2828      C2829   1.420       .  A
C2829      C2830   1.415       .  A
C2829      C2832   1.451       .  S
C2830      C2833   1.451       .  S
C2831      N2838   1.157       .  T
C2832      N2837   1.157       .  T
C2833      N2835   1.157       .  T
C2834      N2836   1.157       .  T
C2839      C2840   1.412       .  A
C2839      C2844   1.414       .  A
C2840      C2841   1.409       .  A
C2840      C2845   1.448       .  S
C2841      C2842   1.423       .  A
C2841      C2848   1.452       .  S
C2842      C2843   1.420       .  A
C2843      C2844   1.421       .  A
C2843      C2846   1.449       .  S
C2844      C2847   1.445       .  S
C2845      N2852   1.155       .  T
C2846      N2851   1.158       .  T
C2847      N2849   1.156       .  T
C2848      N2850   1.157       .  T
C2853      C2854   1.406       .  A
C2853      C2858   1.411       .  A
C2854      C2855   1.397       .  A
C2854      C2859   1.453       .  S
C2855      C2856   1.416       .  A
C2855      C2862   1.449       .  S
C2856      C2857   1.417       .  A
C2857      C2858   1.416       .  A
C2857      C2860   1.450       .  S
C2858      C2861   1.448       .  S
C2859      N2866   1.156       .  T
C2860      N2865   1.157       .  T
C2861      N2863   1.158       .  T
C2862      N2864   1.157       .  T
C2867      C2868   1.421       .  A
C2867      C2872   1.412       .  A
C2868      C2869   1.406       .  A
C2868      C2873   1.446       .  S
C2869      C2870   1.400       .  A
C2869      C2876   1.450       .  S
C2870      C2871   1.409       .  A
C2871      C2872   1.415       .  A
C2871      C2874   1.450       .  S
C2872      C2875   1.448       .  S
C2873      N2880   1.155       .  T
C2874      N2879   1.157       .  T
C2875      N2877   1.157       .  T
C2876      N2878   1.157       .  T
O2881      C2896   1.259       .  A
O2881     Al2889   1.897       .  S
C2882      O2892   1.262       .  A
C2882      O2883   1.260       .  A
C2882      C3401   1.490       .  S
O2883     Al2885   1.893       .  S
O2884      C2886   1.255       .  A
O2884     Al2885   1.861       .  S
Al2885     O2893   1.866       .  S
Al2885     O2895   1.912       .  S
Al2885     O2894   1.763       .  S
C2886      O2899   1.261       .  A
C2886      C3429   1.487       .  S
O2887      C2897   1.262       .  A
O2887     Al2889   1.888       .  S
O2888      C2901   1.264       .  A
O2888     Al2898   1.918       .  S
Al2889     O2902   1.890       .  S
Al2889     O2899   1.930       .  S
Al2889     O2894   1.786       .  S
O2890      C2897   1.271       .  A
O2890     Al2898   1.937       .  S
O2891      C2900   1.270       .  A
O2891     Al2898   1.956       .  S
O2892     Al2898   1.913       .  S
O2893      C2900   1.254       .  A
O2894     Al2898   1.780       .  S
O2895      C2896   1.263       .  A
C2896      C3446   1.469       .  S
C2897      C3376   1.487       .  S
C2900      C3418   1.514       .  S
C2901      O2902   1.258       .  A
C2901      C3387   1.504       .  S
O2903      C2918   1.259       .  A
O2903     Al2911   1.906       .  S
C2904      O4066   1.265       .  A
C2904      O2905   1.260       .  A
C2904      C3331   1.508       .  S
O2905     Al2907   1.903       .  S
O2906      C2908   1.260       .  A
O2906     Al2907   1.875       .  S
Al2907     O2915   1.876       .  S
Al2907     O2917   1.896       .  S
Al2907     O2916   1.772       .  S
C2908      O2921   1.261       .  A
C2908      C3362   1.498       .  S
O2909      C4071   1.257       .  A
O2909     Al2911   1.892       .  S
O2910      C2923   1.265       .  A
O2910     Al2920   1.915   1_545  S
Al2911     O2924   1.900       .  S
Al2911     O2921   1.918       .  S
Al2911     O2916   1.787       .  S
O2912      C2919   1.265   1_545  A
O2912     Al2920   1.925   1_545  S
O2913      C4074   1.265       .  A
O2913     Al2920   1.948       .  S
O2914      C4056   1.265       .  A
O2914     Al2920   1.922       .  S
O2915      C2922   1.256       .  A
O2916     Al4072   1.790       .  S
O2917      C2918   1.259       .  A
C2918      C3432   1.482       .  S
C2919      O4061   1.258       .  A
C2919      C3306   1.514   1_565  S
Al2920     O4068   1.790       .  S
C2922      O4065   1.265       .  A
C2922      C3345   1.487       .  S
C2923      O4076   1.261   1_545  A
C2923      C3320   1.513       .  S
O2924      C4075   1.262       .  A
O2925      C2940   1.266       .  A
O2925     Al2933   1.923       .  S
C2926      O2927   1.253       .  A
C2926      C3289   1.487       .  S
O2927     Al2929   1.881       .  S
O2928      C2930   1.266       .  A
O2928     Al2929   1.921       .  S
Al2929     O2937   1.888       .  S
Al2929     O2939   1.890       .  S
Al2929     O2938   1.781       .  S
C2930      O2943   1.255       .  A
C2930      C3443   1.493       .  S
O2931     Al2933   1.899       .  S
O2932      C2945   1.258   1_655  A
O2932     Al2942   1.905   1_655  S
Al2933     O2946   1.889       .  S
Al2933     O2943   1.882       .  S
Al2933     O2938   1.792       .  S
O2934      C2941   1.263   1_655  A
O2934     Al2942   1.903   1_655  S
O2935     Al2942   1.922       .  S
O2936     Al2942   1.917       .  S
O2937      C2944   1.261       .  A
O2939      C2940   1.258       .  A
C2940      C3359   1.486       .  S
C2941      C3264   1.508   1_455  S
C2944      C3278   1.485       .  S
C2945      C3247   1.497   1_455  S
O2947      C2962   1.258       .  A
O2947     Al2955   1.919       .  S
C2948      O2958   1.265       .  A
C2948      O2949   1.254       .  A
C2948      C3303   1.499       .  S
O2949     Al2951   1.875       .  S
O2950     Al2951   1.893       .  S
Al2951     O2959   1.878       .  S
Al2951     O2961   1.869       .  S
Al2951     O2960   1.771       .  S
C2952      O2965   1.262       .  A
C2952      C3236   1.496       .  S
O2953      C2963   1.256       .  A
O2953     Al2955   1.882       .  S
O2954      C2967   1.265       .  A
Al2955     O2968   1.880       .  S
Al2955     O2965   1.911       .  S
O2956      C2963   1.261       .  A
O2957      C2966   1.262       .  A
O2957     Al2964   1.923       .  S
O2958     Al2964   1.935       .  S
O2959      C2966   1.260       .  A
O2960     Al2964   1.796       .  S
C2962      C3219   1.485       .  S
C2963      C3208   1.508       .  S
C2966      C3390   1.471       .  S
C2967      O2968   1.259       .  A
C2967      C3194   1.509       .  S
O2969      C2984   1.261       .  A
O2969     Al2977   1.918       .  S
C2970      O2980   1.258       .  A
C2970      O2971   1.249       .  A
C2970      C3261   1.488       .  S
O2971     Al2973   1.853       .  S
O2972     Al2973   1.894       .  S
Al2973     O2981   1.869       .  S
Al2973     O2983   1.888       .  S
Al2973     O2982   1.786       .  S
C2974      O2987   1.263       .  A
C2974      C3177   1.503       .  S
O2975      C2985   1.264       .  A
O2975     Al2977   1.910       .  S
O2976      C2989   1.264       .  A
Al2977     O2990   1.879       .  S
Al2977     O2987   1.919       .  S
O2978      C2985   1.264       .  A
O2979      C2988   1.261       .  A
O2979     Al2986   1.921       .  S
O2980     Al2986   1.913       .  S
O2981      C2988   1.257       .  A
O2982     Al2986   1.800       .  S
C2984      C3233   1.486       .  S
C2985      C3152   1.490       .  S
C2988      C3317   1.477       .  S
C2989      O2990   1.256       .  A
C2989      C3166   1.507       .  S
O2991      C3006   1.263       .  A
O2991     Al2999   1.925       .  S
C2992      O3002   1.263       .  A
C2992      O2993   1.258       .  A
C2992      C3373   1.500       .  S
O2993     Al2995   1.904       .  S
O2994     Al2995   1.883       .  S
Al2995     O3003   1.864       .  S
Al2995     O3005   1.883       .  S
Al2995     O3004   1.771       .  S
C2996      O3009   1.261       .  A
C2996      C3222   1.470       .  S
O2997      C3007   1.261       .  A
O2997     Al2999   1.903       .  S
O2998      C3011   1.264       .  A
Al2999     O3012   1.906       .  S
Al2999     O3009   1.919       .  S
O3000      C3007   1.265       .  A
O3001      C3010   1.269       .  A
O3001     Al3008   1.955       .  S
O3002     Al3008   1.919       .  S
O3003      C3010   1.255       .  A
O3004     Al3008   1.782       .  S
C3006      C3180   1.478       .  S
C3007      C3124   1.511       .  S
C3010      C3250   1.480       .  S
C3011      O3012   1.262       .  A
C3011      C3135   1.480       .  S
O3013      C3028   1.267       .  A
O3013     Al3021   1.943       .  S
C3014      O3024   1.270       .  A
C3014      O3015   1.252       .  A
C3014      C3121   1.480       .  S
O3015     Al3017   1.857       .  S
O3016      C3018   1.260       .  A
O3016     Al3017   1.909       .  S
Al3017     O3025   1.931       .  S
Al3017     O3027   1.877       .  S
Al3017     O3026   1.773       .  S
C3018      O3031   1.258       .  A
C3018      C3107   1.479       .  S
O3019      C3029   1.269       .  A
O3019     Al3021   1.940       .  S
O3020      C3033   1.270       .  A
O3020     Al3030   1.953       .  S
Al3021     O3034   1.889       .  S
Al3021     O3031   1.899       .  S
Al3021     O3026   1.785       .  S
O3022      C3029   1.260       .  A
O3022     Al3030   1.889       .  S
O3023      C3032   1.260       .  A
O3023     Al3030   1.902       .  S
O3024     Al3030   1.963       .  S
O3025      C3032   1.263       .  A
O3026     Al3030   1.783       .  S
O3027      C3028   1.258       .  A
C3028      C4245   1.479       .  S
C3029      C3404   1.502       .  S
C3032      C3163   1.484       .  S
C3033      O3034   1.258       .  A
C3033      C3348   1.502       .  S
O3035      C3050   1.258       .  A
O3035     Al3043   1.911       .  S
C3036      O3046   1.260       .  A
C3036      O3037   1.257       .  A
C3036      C3205   1.498       .  S
O3037     Al3039   1.887       .  S
O3038      C3040   1.256       .  A
O3038     Al3039   1.861       .  S
Al3039     O3047   1.870       .  S
Al3039     O3049   1.902       .  S
Al3039     O3048   1.773       .  S
C3040      O3053   1.263       .  A
C3040      C4231   1.491       .  S
O3041      C3051   1.260       .  A
O3041     Al3043   1.884       .  S
O3042      C3055   1.265       .  A
O3042     Al3052   1.921       .  S
Al3043     O3056   1.886       .  S
Al3043     O3053   1.935       .  S
Al3043     O3048   1.789       .  S
O3044      C3051   1.267       .  A
O3044     Al3052   1.933       .  S
O3045      C3054   1.270       .  A
O3045     Al3052   1.954       .  S
O3046     Al3052   1.912       .  S
O3047      C3054   1.257       .  A
O3048     Al3052   1.793       .  S
O3049      C3050   1.259       .  A
C3051      C3334   1.517       .  S
C3054      C3138   1.510       .  S
C3055      O3056   1.258       .  A
C3055      C3275   1.506       .  S
O3057      C3072   1.264       .  A
O3057     Al3065   1.921       .  S
C3058      O3068   1.264       .  A
C3058      O3059   1.256       .  A
C3058      C3149   1.505       .  S
O3059     Al3061   1.907       .  S
O3060      C3062   1.259       .  A
O3060     Al3061   1.880       .  S
Al3061     O3069   1.842       .  S
Al3061     O3071   1.889       .  S
Al3061     O3070   1.772       .  S
C3062      O3075   1.268       .  A
O3063      C3073   1.260       .  A
O3063     Al3065   1.898       .  S
O3064      C3077   1.265       .  A
O3064     Al3074   1.924       .  S
Al3065     O3078   1.936       .  S
Al3065     O3075   1.945       .  S
Al3065     O3070   1.780       .  S
O3066      C3073   1.268       .  A
O3066     Al3074   1.930       .  S
O3067      C3076   1.272       .  A
O3067     Al3074   1.967       .  S
O3068     Al3074   1.932       .  S
O3069      C3076   1.254       .  A
O3070     Al3074   1.781       .  S
O3071      C3072   1.257       .  A
C3072      C3082   1.483       .  S
C3073      C3292   1.510       .  S
C3076      C3191   1.478       .  S
C3077      O3078   1.269       .  A
C3077      C3415   1.499       .  S
C3079      C4192   1.491   1_545  S
C3079      C3080   1.408       .  A
C3079      C3084   1.412       .  A
C3080      C3081   1.399       .  A
C3080      C3085   1.452       .  S
C3081      C3082   1.416       .  A
C3081      C3088   1.450       .  S
C3082      C3083   1.416       .  A
C3083      C3084   1.417       .  A
C3083      C3086   1.449       .  S
C3084      C4239   1.447       .  S
C3085      N3092   1.156       .  T
C3086      N3091   1.157       .  T
C3087      C4236   1.447       .  S
C3087      N3089   1.157       .  T
C3088      N3090   1.157       .  T
C3093      C4180   1.479   1_545  S
C3093      C3094   1.412       .  A
C3093      C3098   1.414       .  A
C3094      C3095   1.417       .  A
C3094      C3099   1.449       .  S
C3095      C3096   1.412       .  A
C3095      C3102   1.448       .  S
C3096      C3097   1.411       .  A
C3097      C3098   1.401       .  A
C3097      C3100   1.454   1_655  S
C3098      C3101   1.453   1_545  S
C3099      N3106   1.157       .  T
C3101      N4255   1.157       .  T
C3102      N3104   1.157       .  T
N3103      C4253   1.157       .  T
C3107      C3108   1.410       .  A
C3107      C3112   1.415       .  A
C3108      C3109   1.409       .  A
C3108      C3113   1.450       .  S
C3109      C3110   1.410       .  A
C3109      C3116   1.449       .  S
C3110      C3111   1.407       .  A
C3111      C3112   1.413       .  A
C3112      C3115   1.450       .  S
C3113      N3120   1.157       .  T
C3114      N3119   1.157       .  T
C3115      N3117   1.157       .  T
C3116      N3118   1.157       .  T
C3121      C3122   1.408       .  A
C3121      C3126   1.408       .  A
C3122      C3123   1.411       .  A
C3122      C3127   1.451       .  S
C3123      C3124   1.423       .  A
C3123      C3130   1.450       .  S
C3124      C3125   1.426       .  A
C3125      C3126   1.416       .  A
C3125      C3128   1.451       .  S
C3126      C3129   1.452       .  S
C3127      N3134   1.157       .  T
C3128      N3133   1.158       .  T
C3129      N3131   1.157       .  T
C3130      N3132   1.156   1_556  T
C3135      C3136   1.407       .  A
C3135      C3140   1.405       .  A
C3136      C3141   1.451       .  S
C3137      C3138   1.422       .  A
C3137      C3144   1.449       .  S
C3138      C3139   1.429       .  A
C3139      C3142   1.453       .  S
C3140      C3143   1.453       .  S
C3141      N3148   1.157       .  T
C3142      N3147   1.158       .  T
C3143      N3145   1.157       .  T
C3144      N3146   1.158       .  T
C3149      C3150   1.419       .  A
C3150      C3155   1.448       .  S
C3151      C3152   1.412       .  A
C3151      C3158   1.451       .  S
C3152      C3153   1.411       .  A
C3153      C3154   1.408       .  A
C3153      C3156   1.456       .  S
C3155      N3162   1.157       .  T
C3156      N3161   1.157       .  T
C3157      N3159   1.158       .  T
C3158      N3160   1.157       .  T
C3163      C3164   1.409       .  A
C3163      C4320   1.405       .  A
C3164      C4317   1.420       .  A
C3164      C3169   1.449       .  S
C3165      C4316   1.420   1_545  A
C3165      C3166   1.422       .  A
C3165      C3172   1.449   1_545  S
C3166      C3167   1.427       .  A
C3167      C3168   1.408       .  A
C3167      C3170   1.454       .  S
C3168      C4315   1.405   1_545  A
C3168      C3171   1.452       .  S
C3169      N3176   1.157       .  T
C3170      N3175   1.157       .  T
C3171      N3173   1.157       .  T
C3172      N4326   1.158   1_556  T
N3174      C4324   1.158   1_554  T
C3177      C3178   1.424       .  A
C3178      C3179   1.414       .  A
C3178      C3183   1.450       .  S
C3179      C3180   1.408       .  A
C3179      C3186   1.451       .  S
C3181      C3182   1.409       .  A
C3181      C3184   1.451       .  S
C3182      C3185   1.450       .  S
C3183      N3190   1.157       .  T
C3184      N3189   1.157       .  T
C3185      N3187   1.157       .  T
C3186      N3188   1.157       .  T
C3191      C3192   1.409       .  A
C3191      C3196   1.410       .  A
C3192      C3193   1.418       .  A
C3192      C3197   1.450       .  S
C3193      C3194   1.423       .  A
C3193      C3200   1.450       .  S
C3194      C3195   1.425       .  A
C3195      C3196   1.405       .  A
C3195      C3198   1.454       .  S
C3196      C3199   1.455       .  S
C3197      N3204   1.157       .  T
C3198      N3203   1.157       .  T
C3199      N3201   1.158       .  T
C3205      C4358   1.414       .  A
C3205      C3210   1.416       .  A
C3206      C4357   1.414       .  A
C3206      C3207   1.415   1_565  A
C3206      C3211   1.450       .  S
C3207      C3208   1.424       .  A
C3207      C3214   1.453       .  S
C3208      C4361   1.421       .  A
C3209      C4360   1.421       .  A
C3209      C3210   1.410       .  A
C3209      C3212   1.451       .  S
C3210      C3213   1.454       .  S
C3211      N3218   1.158       .  T
C3213      N3215   1.157       .  T
C3214      N3216   1.157       .  T
C3219      C3220   1.414       .  A
C3219      C3224   1.415       .  A
C3221      C3228   1.449       .  S
C3222      C3223   1.406       .  A
C3223      C3224   1.395       .  A
C3223      C3226   1.453       .  S
C3224      C3227   1.452       .  S
C3225      N3232   1.157       .  T
C3226      N3231   1.157   1_556  T
C3227      N3229   1.155       .  T
C3228      N3230   1.157       .  T
C3233      C3234   1.414       .  A
C3234      C3235   1.417       .  A
C3234      C3239   1.451       .  S
C3235      C3236   1.422       .  A
C3235      C3242   1.450       .  S
C3237      C3238   1.399       .  A
C3237      C3240   1.454       .  S
C3238      C3241   1.448       .  S
C3239      N3246   1.157       .  T
C3240      N3245   1.157       .  T
C3241      N3243   1.157       .  T
C3242      N3244   1.157       .  T
C3247      C3248   1.417       .  A
C3247      C3252   1.420       .  A
C3248      C3249   1.412       .  A
C3248      C3253   1.451       .  S
C3249      C3250   1.411       .  A
C3249      C3256   1.452       .  S
C3250      C3251   1.407       .  A
C3251      C3252   1.414       .  A
C3251      C3254   1.451       .  S
C3253      N3260   1.158       .  T
C3255      N3257   1.157       .  T
C3256      N3258   1.157       .  T
C3261      C3262   1.415       .  A
C3261      C3266   1.411       .  A
C3262      C3263   1.407       .  A
C3262      C3267   1.456       .  S
C3263      C3264   1.424       .  A
C3263      C3270   1.454       .  S
C3264      C3265   1.425       .  A
C3265      C3266   1.415       .  A
C3266      C3269   1.452       .  S
C3267      N3274   1.157       .  T
C3268      N3273   1.157       .  T
C3270      N3272   1.158       .  T
C3275      C3276   1.426       .  A
C3275      C3280   1.422       .  A
C3276      C3277   1.406       .  A
C3276      C3281   1.454       .  S
C3277      C3278   1.406       .  A
C3277      C3284   1.453       .  S
C3278      C3279   1.407       .  A
C3279      C3280   1.419       .  A
C3279      C3282   1.448       .  S
C3280      C3283   1.448       .  S
C3281      N3288   1.157       .  T
C3282      N3287   1.157       .  T
C3283      N3285   1.157       .  T
C3284      N3286   1.157       .  T
C3289      C3290   1.409       .  A
C3289      C3294   1.410       .  A
C3290      C3291   1.418       .  A
C3290      C3295   1.452       .  S
C3291      C3292   1.428       .  A
C3291      C3298   1.451       .  S
C3292      C3293   1.420       .  A
C3293      C3294   1.410       .  A
C3293      C3296   1.449       .  S
C3294      C3297   1.452       .  S
C3296      N3301   1.157       .  T
C3297      N3299   1.156       .  T
C3298      N3300   1.157       .  T
C3303      C3304   1.412       .  A
C3303      C3308   1.418       .  A
C3304      C3305   1.419       .  A
C3304      C3309   1.452       .  S
C3305      C3306   1.429       .  A
C3305      C4464   1.451   1_545  S
C3306      C3307   1.422       .  A
C3307      C3308   1.410       .  A
C3307      C3310   1.454       .  S
C3308      C3311   1.454       .  S
C3309      N4468   1.157       .  T
C3310      N3315   1.158       .  T
C3311      N3313   1.157       .  T
C3312      C4457   1.451       .  S
C3312      N3314   1.157       .  T
N3316      C4461   1.157       .  T
C3317      C3318   1.404       .  A
C3317      C3322   1.404       .  A
C3318      C3319   1.409       .  A
C3318      C3323   1.455       .  S
C3319      C3320   1.432       .  A
C3319      C4478   1.453   1_545  S
C3320      C3321   1.427       .  A
C3321      C3322   1.415       .  A
C3321      C3324   1.450       .  S
C3322      C3325   1.450       .  S
C3323      N3330   1.157       .  T
C3324      N3329   1.158       .  T
C3325      N3327   1.157       .  T
C3326      C4471   1.453       .  S
C3326      N3328   1.158       .  T
C3331      C3332   1.421       .  A
C3331      C3336   1.416       .  A
C3332      C3333   1.418       .  A
C3332      C3337   1.453       .  S
C3333      C3334   1.423       .  A
C3333      C3340   1.452       .  S
C3334      C3335   1.425       .  A
C3335      C3336   1.414       .  A
C3335      C4490   1.454       .  S
C3336      C4491   1.448       .  S
C3337      N3344   1.157       .  T
C3338      C4487   1.454       .  S
C3338      N3343   1.158   1_565  T
C3339      C4488   1.448       .  S
C3339      N3341   1.155   1_565  T
C3340      N3342   1.158       .  T
C3345      C3346   1.408       .  A
C3345      C3350   1.409       .  A
C3346      C3347   1.412       .  A
C3346      C3351   1.453       .  S
C3347      C3348   1.421       .  A
C3347      C3354   1.451       .  S
C3348      C3349   1.418       .  A
C3349      C3350   1.419       .  A
C3349      C3352   1.449       .  S
C3350      C4505   1.449       .  S
C3351      N3358   1.157       .  T
C3352      N4509   1.157       .  T
C3353      C4502   1.449       .  S
C3353      N3355   1.157       .  T
C3354      N3356   1.157       .  T
N3357      C4504   1.157       .  T
C3359      C3360   1.416       .  A
C3359      C3364   1.414       .  A
C3360      C3361   1.398       .  A
C3360      C3365   1.450       .  S
C3361      C3362   1.409       .  A
C3361      C3368   1.450       .  S
C3362      C3363   1.420       .  A
C3363      C3364   1.419       .  A
C3363      C3366   1.449       .  S
C3364      C3367   1.448       .  S
C3365      N3372   1.157       .  T
C3366      N3371   1.157       .  T
C3367      N3369   1.157       .  T
C3368      N3370   1.155       .  T
C3373      C3374   1.424       .  A
C3373      C3378   1.417       .  A
C3374      C3375   1.409       .  A
C3374      C3379   1.453       .  S
C3375      C3376   1.411       .  A
C3375      C3382   1.454       .  S
C3376      C3377   1.414       .  A
C3377      C3378   1.415       .  A
C3377      C3380   1.452       .  S
C3378      C3381   1.450       .  S
C3379      N3386   1.157       .  T
C3380      N3385   1.157       .  T
C3381      N3383   1.157       .  T
C3382      N3384   1.158       .  T
C3387      C3388   1.428       .  A
C3387      C3392   1.424       .  A
C3388      C3389   1.402       .  A
C3388      C3393   1.453       .  S
C3389      C3390   1.401       .  A
C3389      C3396   1.453       .  S
C3390      C3391   1.406       .  A
C3391      C3392   1.415       .  A
C3391      C3394   1.449       .  S
C3392      C3395   1.450       .  S
C3393      N3400   1.158       .  T
C3394      N3399   1.158       .  T
C3395      N3397   1.157       .  T
C3396      N3398   1.156       .  T
C3401      C3402   1.413       .  A
C3401      C3406   1.413       .  A
C3402      C3403   1.410       .  A
C3402      C3407   1.454       .  S
C3403      C3404   1.420       .  A
C3403      C3410   1.451       .  S
C3404      C3405   1.419       .  A
C3405      C3406   1.416       .  A
C3405      C3408   1.451       .  S
C3406      C3409   1.450       .  S
C3407      N3414   1.157       .  T
C3408      N3413   1.157       .  T
C3409      N3411   1.157       .  T
C3410      N3412   1.157       .  T
C3415      C3416   1.410       .  A
C3415      C3420   1.413       .  A
C3416      C3417   1.410       .  A
C3416      C3421   1.447       .  S
C3417      C3418   1.425       .  A
C3417      C3424   1.454       .  S
C3418      C3419   1.420       .  A
C3419      C3420   1.421       .  A
C3419      C3422   1.450       .  S
C3420      C3423   1.444       .  S
C3421      N3428   1.155       .  T
C3422      N3427   1.158       .  T
C3423      N3425   1.156       .  T
C3424      N3426   1.157       .  T
C3429      C3430   1.406       .  A
C3429      C3434   1.411       .  A
C3430      C3431   1.398       .  A
C3430      C3435   1.453       .  S
C3431      C3432   1.414       .  A
C3431      C3438   1.446       .  S
C3432      C3433   1.417       .  A
C3433      C3434   1.416       .  A
C3433      C3436   1.449       .  S
C3434      C3437   1.448       .  S
C3435      N3442   1.156       .  T
C3436      N3441   1.157       .  T
C3437      N3439   1.157       .  T
C3438      N3440   1.155       .  T
C3443      C3444   1.423       .  A
C3443      C3448   1.411       .  A
C3444      C3445   1.406       .  A
C3444      C3449   1.449       .  S
C3445      C3446   1.401       .  A
C3445      C3452   1.449       .  S
C3446      C3447   1.408       .  A
C3447      C3448   1.410       .  A
C3447      C3450   1.449       .  S
C3448      C3451   1.448       .  S
C3449      N3456   1.157       .  T
C3450      N3455   1.157       .  T
C3451      N3453   1.157       .  T
C3452      N3454   1.156       .  T
O3457      C3472   1.258       .  A
O3457     Al3465   1.899       .  S
C3458      O3468   1.260       .  A
C3458      O3459   1.258       .  A
C3458      C3977   1.490       .  S
O3459     Al3461   1.894       .  S
O3460      C3462   1.255       .  A
O3460     Al3461   1.860       .  S
Al3461     O3469   1.863       .  S
Al3461     O3471   1.915       .  S
Al3461     O3470   1.769       .  S
C3462      O3475   1.262       .  A
C3462      C4005   1.487       .  S
O3463      C3473   1.263       .  A
O3463     Al3465   1.894       .  S
O3464      C3477   1.265       .  A
O3464     Al3474   1.918       .  S
Al3465     O3478   1.874       .  S
Al3465     O3475   1.932       .  S
Al3465     O3470   1.787       .  S
O3466      C3473   1.269       .  A
O3466     Al3474   1.929       .  S
O3467      C3476   1.272       .  A
O3467     Al3474   1.961       .  S
O3468     Al3474   1.911       .  S
O3469      C3476   1.255       .  A
O3470     Al3474   1.784       .  S
O3471      C3472   1.263       .  A
C3472      C4022   1.473       .  S
C3473      C3952   1.490       .  S
C3476      C3994   1.511       .  S
C3477      O3478   1.256       .  A
C3477      C3963   1.499       .  S
O3479      C3494   1.258       .  A
O3479     Al3487   1.901       .  S
C3480      O3481   1.257       .  A
C3480      C3907   1.506       .  S
O3481     Al3483   1.893       .  S
O3482      C3484   1.259       .  A
O3482     Al3483   1.875       .  S
Al3483     O3491   1.862       .  S
Al3483     O3493   1.903       .  S
Al3483     O3492   1.773       .  S
C3484      O3497   1.263       .  A
C3484      C3938   1.499       .  S
O3485     Al3487   1.885       .  S
O3486      C3499   1.265       .  A
O3486     Al3496   1.926       .  S
Al3487     O3500   1.892       .  S
Al3487     O3497   1.928       .  S
Al3487     O3492   1.779       .  S
O3488      C3495   1.268       .  A
O3488     Al3496   1.937       .  S
O3489     Al3496   1.955       .  S
O3490     Al3496   1.927       .  S
O3491      C3498   1.255       .  A
O3493      C3494   1.259       .  A
C3494      C4008   1.480       .  S
C3495      C3882   1.516       .  S
C3498      C3921   1.485       .  S
C3499      C3896   1.513       .  S
O3501      C3516   1.267       .  A
O3501     Al3509   1.924       .  S
C3502      O3503   1.254       .  A
C3502      C3865   1.486       .  S
O3503     Al3505   1.885       .  S
O3504      C3506   1.267       .  A
O3504     Al3505   1.931       .  S
Al3505     O3513   1.889       .  S
Al3505     O3515   1.896       .  S
Al3505     O3514   1.781       .  S
C3506      O3519   1.257       .  A
C3506      C4019   1.496       .  S
O3507     Al3509   1.898       .  S
O3508      C3521   1.257       .  A
O3508     Al3518   1.909   1_655  S
Al3509     O3522   1.898       .  S
Al3509     O3519   1.893       .  S
Al3509     O3514   1.790       .  S
O3510      C3517   1.264       .  A
O3510     Al3518   1.904   1_655  S
O3511     Al3518   1.924       .  S
O3512     Al3518   1.915       .  S
O3513      C3520   1.261       .  A
O3515      C3516   1.259       .  A
C3516      C3935   1.488       .  S
C3517      C3840   1.511       .  S
C3520      C3854   1.486       .  S
C3521      C3823   1.498       .  S
O3523      C3538   1.260       .  A
O3523     Al3531   1.929       .  S
C3524      O3534   1.264       .  A
C3524      O3525   1.254       .  A
C3524      C3879   1.494       .  S
O3525     Al3527   1.880       .  S
O3526      C4104   1.265   1_554  A
O3526     Al3527   1.887       .  S
Al3527     O3535   1.873       .  S
Al3527     O3537   1.862       .  S
Al3527     O3536   1.768       .  S
C3528      O4102   1.265       .  A
C3528      O3541   1.258       .  A
C3528      C3812   1.495       .  S
O3529      C3539   1.256       .  A
O3529     Al3531   1.883       .  S
O3530      C3543   1.267       .  A
O3530     Al4116   1.932       .  S
Al3531     O3544   1.875       .  S
Al3531     O3541   1.899       .  S
Al3531     O4112   1.790       .  S
O3532      C3539   1.260       .  A
O3532     Al4116   1.909       .  S
O3533      C3542   1.264       .  A
O3533     Al3540   1.930       .  S
O3534     Al3540   1.930       .  S
O3535      C3542   1.261       .  A
O3536     Al4107   1.792   1_554  S
O3536     Al3540   1.790       .  S
O3537      C4114   1.253   1_554  A
C3538      O4113   1.254       .  A
C3538      C3795   1.488       .  S
C3539      C3784   1.510       .  S
Al3540     O4106   1.921   1_554  S
Al3540     O4108   1.912   1_554  S
C3542      C3966   1.479       .  S
C3543      O3544   1.257       .  A
C3543      C3770   1.514       .  S
O3545      C3560   1.262       .  A
O3545     Al3553   1.916       .  S
C3546      O3556   1.261       .  A
C3546      O3547   1.251       .  A
C3546      C3837   1.491       .  S
O3547     Al3549   1.864       .  S
O3548      C4126   1.263   1_554  A
O3548     Al3549   1.901       .  S
Al3549     O3557   1.869       .  S
Al3549     O3559   1.892       .  S
Al3549     O3558   1.782       .  S
C3550      O4124   1.259       .  A
C3550      O3563   1.260       .  A
C3550      C3753   1.496       .  S
O3551      C3561   1.264       .  A
O3551     Al3553   1.910       .  S
O3552      C3565   1.261       .  A
O3552     Al4138   1.919       .  S
Al3553     O3566   1.880       .  S
Al3553     O3563   1.914       .  S
Al3553     O4134   1.792       .  S
O3554      C3561   1.262       .  A
O3554     Al4138   1.889       .  S
O3555      C3564   1.265       .  A
O3555     Al3562   1.939       .  S
O3556     Al3562   1.923       .  S
O3557      C3564   1.258       .  A
O3558     Al4129   1.784   1_554  S
O3558     Al3562   1.797       .  S
O3559      C4136   1.255   1_554  A
C3560      O4135   1.255       .  A
C3560      C3809   1.484       .  S
C3561      C3728   1.482       .  S
Al3562     O4128   1.929   1_554  S
Al3562     O4130   1.900   1_554  S
C3564      C3893   1.483       .  S
C3565      O3566   1.254       .  A
C3565      C3742   1.509       .  S
O3567      C3582   1.260       .  A
O3567     Al3575   1.911       .  S
C3568      O3578   1.264       .  A
C3568      O3569   1.256       .  A
C3568      C3949   1.500       .  S
O3569     Al3571   1.895       .  S
O3570      C4148   1.258   1_554  A
O3570     Al3571   1.885       .  S
Al3571     O3579   1.859       .  S
Al3571     O3581   1.872   1_554  S
Al3571     O3580   1.771   1_554  S
C3572      O4146   1.256       .  A
C3572      O3585   1.262       .  A
C3572      C3798   1.472       .  S
O3573      C3583   1.259       .  A
O3573     Al3575   1.893       .  S
O3574      C3587   1.264       .  A
O3574     Al4160   1.906       .  S
Al3575     O3588   1.906       .  S
Al3575     O3585   1.927       .  S
Al3575     O4156   1.789       .  S
O3576      C3583   1.266       .  A
O3576     Al4160   1.927       .  S
O3577      C3586   1.268       .  A
O3577     Al3584   1.954       .  S
O3578     Al3584   1.923       .  S
O3579      C3586   1.254       .  A
O3580     Al4151   1.792       .  S
O3580     Al3584   1.786   1_556  S
O3581      C4158   1.255       .  A
C3582      O4157   1.258       .  A
C3582      C3756   1.473       .  S
C3583      C3700   1.510       .  S
Al3584     O4150   1.909   1_554  S
Al3584     O4152   1.921   1_554  S
C3586      C3826   1.478       .  S
C3587      O3588   1.262       .  A
C3587      C3711   1.477       .  S
O3589      C3604   1.266       .  A
O3589     Al3597   1.944       .  S
C3590      O3600   1.269       .  A
C3590      O3591   1.252       .  A
C3590      C3697   1.480       .  S
O3591     Al3593   1.860       .  S
O3592      C3594   1.261       .  A
O3592     Al3593   1.908       .  S
Al3593     O3601   1.928       .  S
Al3593     O3603   1.884       .  S
Al3593     O3602   1.775       .  S
C3594      O3607   1.257       .  A
C3594      C3683   1.472       .  S
O3595      C3605   1.268       .  A
O3595     Al3597   1.934       .  S
O3596      C3609   1.270       .  A
O3596     Al3606   1.951       .  S
Al3597     O3610   1.883       .  S
Al3597     O3607   1.891       .  S
Al3597     O3602   1.784       .  S
O3598      C3605   1.262       .  A
O3598     Al3606   1.898       .  S
O3599      C3608   1.261       .  A
O3599     Al3606   1.904       .  S
O3600     Al3606   1.960       .  S
O3601      C3608   1.263       .  A
O3602     Al3606   1.782       .  S
O3603      C3604   1.258       .  A
C3605      C3980   1.501       .  S
C3608      C3739   1.484       .  S
C3609      O3610   1.258       .  A
C3609      C3924   1.494       .  S
O3611      C3626   1.259       .  A
O3611     Al3619   1.904       .  S
C3612      O3622   1.260       .  A
C3612      O3613   1.259       .  A
C3612      C3781   1.492       .  S
O3613     Al3615   1.896       .  S
O3614      C3616   1.257       .  A
O3614     Al3615   1.870       .  S
Al3615     O3623   1.869       .  S
Al3615     O3625   1.904       .  S
Al3615     O3624   1.771       .  S
C3616      O3629   1.261       .  A
O3617      C3627   1.260       .  A
O3617     Al3619   1.887       .  S
O3618      C3631   1.265       .  A
O3618     Al3628   1.924       .  S
Al3619     O3632   1.885       .  S
Al3619     O3629   1.931       .  S
Al3619     O3624   1.785       .  S
O3620      C3627   1.269       .  A
O3620     Al3628   1.941       .  S
O3621      C3630   1.269       .  A
O3621     Al3628   1.950       .  S
O3622     Al3628   1.905       .  S
O3623      C3630   1.256       .  A
O3624     Al3628   1.790       .  S
O3625      C3626   1.261       .  A
C3627      C3910   1.519       .  S
C3630      C3714   1.506       .  S
C3631      O3632   1.258       .  A
C3631      C3851   1.506       .  S
O3633      C3648   1.264       .  A
O3633     Al3641   1.923       .  S
C3634      O3644   1.264       .  A
C3634      O3635   1.257       .  A
C3634      C3725   1.503       .  S
O3635     Al3637   1.907       .  S
O3636      C3638   1.259       .  A
O3636     Al3637   1.885       .  S
Al3637     O3645   1.849       .  S
Al3637     O3647   1.886       .  S
Al3637     O3646   1.769       .  S
C3638      O3651   1.267       .  A
O3639      C3649   1.260       .  A
O3639     Al3641   1.898       .  S
O3640      C3653   1.267       .  A
O3640     Al3650   1.926       .  S
Al3641     O3654   1.930       .  S
Al3641     O3651   1.947       .  S
Al3641     O3646   1.780       .  S
O3642      C3649   1.268       .  A
O3642     Al3650   1.932       .  S
O3643      C3652   1.272       .  A
O3643     Al3650   1.969       .  S
O3644     Al3650   1.930       .  S
O3645      C3652   1.253       .  A
O3646     Al3650   1.782       .  S
O3647      C3648   1.256       .  A
C3648      C3658   1.481       .  S
C3649      C3868   1.509       .  S
C3652      C3767   1.480       .  S
C3653      O3654   1.268       .  A
C3653      C3991   1.501       .  S
C3655      C3656   1.407       .  A
C3655      C3660   1.413       .  A
C3656      C3657   1.399       .  A
C3656      C3661   1.451       .  S
C3657      C3658   1.415       .  A
C3657      C3664   1.448       .  S
C3658      C3659   1.415       .  A
C3659      C3660   1.418       .  A
C3659      C3662   1.449       .  S
C3661      N3668   1.156       .  T
C3662      N3667   1.157       .  T
C3663      N3665   1.157       .  T
C3664      N3666   1.156       .  T
C3669      C3670   1.414       .  A
C3669      C3674   1.414       .  A
C3670      C3671   1.419       .  A
C3670      C3675   1.449       .  S
C3671      C3672   1.413       .  A
C3671      C3678   1.448       .  S
C3672      C3673   1.412       .  A
C3673      C3674   1.404       .  A
C3673      C3676   1.454   1_655  S
C3674      C3677   1.453       .  S
C3675      N3682   1.157       .  T
C3678      N3680   1.157       .  T
C3683      C3684   1.408       .  A
C3683      C3688   1.413       .  A
C3684      C3685   1.408       .  A
C3684      C3689   1.451       .  S
C3685      C3686   1.411       .  A
C3685      C3692   1.449       .  S
C3686      C3687   1.406       .  A
C3687      C3688   1.408       .  A
C3688      C3691   1.451       .  S
C3689      N3696   1.157       .  T
C3690      N3695   1.156       .  T
C3691      N3693   1.157       .  T
C3692      N3694   1.157       .  T
C3697      C3698   1.409       .  A
C3697      C3702   1.407       .  A
C3698      C3699   1.411       .  A
C3698      C3703   1.451       .  S
C3699      C3700   1.422       .  A
C3699      C3706   1.451       .  S
C3700      C3701   1.427       .  A
C3701      C3702   1.415       .  A
C3701      C3704   1.451       .  S
C3702      C3705   1.452       .  S
C3703      N3710   1.157       .  T
C3704      N3709   1.158       .  T
C3705      N3707   1.157       .  T
C3706      N3708   1.157       .  T
C3711      C3712   1.409       .  A
C3711      C3716   1.405       .  A
C3712      C3717   1.451       .  S
C3713      C3714   1.421       .  A
C3713      C3720   1.449       .  S
C3714      C3715   1.428       .  A
C3715      C3718   1.454       .  S
C3716      C3719   1.453       .  S
C3717      N3724   1.157       .  T
C3718      N3723   1.158       .  T
C3719      N3721   1.157       .  T
C3720      N3722   1.158       .  T
C3725      C3726   1.419       .  A
C3726      C3731   1.449       .  S
C3727      C3728   1.411       .  A
C3727      C3734   1.450       .  S
C3728      C3729   1.409       .  A
C3729      C3730   1.405       .  A
C3729      C3732   1.456       .  S
C3731      N3738   1.157       .  T
C3732      N3737   1.157       .  T
C3733      N3735   1.158       .  T
C3734      N3736   1.157       .  T
C3739      C3740   1.408       .  A
C3740      C3745   1.449       .  S
C3741      C3742   1.422       .  A
C3741      C3748   1.450       .  S
C3742      C3743   1.427       .  A
C3743      C3744   1.410       .  A
C3743      C3746   1.454       .  S
C3744      C3747   1.452       .  S
C3745      N3752   1.157       .  T
C3746      N3751   1.157       .  T
C3747      N3749   1.157       .  T
C3753      C3754   1.421       .  A
C3753      C4334   1.417       .  A
C3754      C3755   1.413       .  A
C3754      C3759   1.449       .  S
C3755      C3756   1.407       .  A
C3755      C3762   1.451       .  S
C3756      C4333   1.407       .  A
C3757      C4332   1.409       .  A
C3757      C3758   1.410       .  A
C3757      C3760   1.452   1_556  S
C3758      C4329   1.418       .  A
C3758      C3761   1.449   1_556  S
C3759      N3766   1.157       .  T
C3760      N3765   1.157       .  T
C3761      N3763   1.156       .  T
C3762      N3764   1.157       .  T
C3767      C3768   1.410       .  A
C3767      C3772   1.408       .  A
C3768      C3769   1.419       .  A
C3768      C3773   1.451       .  S
C3769      C3770   1.423       .  A
C3769      C3776   1.449       .  S
C3770      C3771   1.430       .  A
C3771      C3772   1.407       .  A
C3771      C3774   1.455       .  S
C3772      C3775   1.455       .  S
C3773      N3780   1.157       .  T
C3774      N3779   1.157       .  T
C3775      N3777   1.158       .  T
C3776      N4354   1.158       .  T
N3778      C4352   1.158   1_554  T
C3781      C3786   1.413       .  A
C3782      C3783   1.413       .  A
C3782      C3787   1.450       .  S
C3783      C3784   1.426       .  A
C3783      C3790   1.453       .  S
C3785      C3786   1.411   1_545  A
C3785      C3788   1.452       .  S
C3786      C3789   1.454       .  S
C3787      N3794   1.157       .  T
C3788      N4369   1.158       .  T
C3789      N3791   1.157       .  T
C3790      N3792   1.157       .  T
N3793      C4364   1.158       .  T
C3795      C3796   1.416       .  A
C3795      C3800   1.417       .  A
C3796      C4373   1.420       .  A
C3796      C4377   1.448       .  S
C3797      C4372   1.418       .  A
C3797      C4374   1.412       .  A
C3797      C3804   1.449       .  S
C3798      C4373   1.412       .  A
C3798      C3799   1.404       .  A
C3799      C3800   1.397       .  A
C3799      C3802   1.453       .  S
C3800      C3803   1.451       .  S
C3801      C4372   1.448       .  S
C3801      N3808   1.158       .  T
C3802      N3807   1.156       .  T
C3803      N3805   1.155       .  T
C3804      N3806   1.157       .  T
C3809      C3810   1.412       .  A
C3809      C4390   1.419       .  A
C3810      C3811   1.416       .  A
C3810      C3815   1.451       .  S
C3811      C3812   1.424       .  A
C3811      C3818   1.450       .  S
C3812      C4389   1.406       .  A
C3813      C4388   1.406   1_554  A
C3813      C3814   1.399       .  A
C3813      C3816   1.454       .  S
C3814      C4385   1.420   1_554  A
C3814      C3817   1.449       .  S
C3815      N3822   1.157       .  T
C3816      N3821   1.157       .  T
C3817      N3819   1.157       .  T
C3818      N3820   1.157       .  T
C3823      C3824   1.417       .  A
C3823      C3828   1.421       .  A
C3824      C3825   1.413       .  A
C3824      C3829   1.451       .  S
C3825      C3826   1.413       .  A
C3825      C3832   1.453       .  S
C3826      C3827   1.405       .  A
C3827      C3828   1.412       .  A
C3827      C3830   1.451       .  S
C3829      N3836   1.158       .  T
C3831      N3833   1.156       .  T
C3832      N3834   1.157       .  T
C3837      C3838   1.414       .  A
C3837      C3842   1.411       .  A
C3838      C3839   1.408       .  A
C3838      C3843   1.455       .  S
C3839      C3840   1.425       .  A
C3839      C3846   1.454       .  S
C3840      C3841   1.426       .  A
C3841      C3842   1.416       .  A
C3842      C3845   1.451       .  S
C3843      N3850   1.157       .  T
C3844      N3849   1.157       .  T
C3846      N3848   1.158       .  T
C3851      C3852   1.425       .  A
C3851      C3856   1.422       .  A
C3852      C3853   1.404       .  A
C3852      C3857   1.454       .  S
C3853      C3854   1.405       .  A
C3853      C3860   1.452       .  S
C3854      C3855   1.408       .  A
C3855      C3856   1.420       .  A
C3855      C3858   1.448       .  S
C3856      C3859   1.448       .  S
C3857      N3864   1.157       .  T
C3858      N3863   1.157       .  T
C3859      N3861   1.157       .  T
C3860      N3862   1.156       .  T
C3865      C3866   1.409       .  A
C3865      C3870   1.410       .  A
C3866      C3867   1.417       .  A
C3866      C3871   1.451       .  S
C3867      C3868   1.427       .  A
C3867      C3874   1.451       .  S
C3868      C3869   1.419       .  A
C3869      C3870   1.410       .  A
C3869      C3872   1.450       .  S
C3870      C3873   1.452       .  S
C3872      N3877   1.157       .  T
C3873      N3875   1.156       .  T
C3874      N3876   1.157       .  T
C3879      C3880   1.409       .  A
C3879      C3884   1.416       .  A
C3880      C3881   1.416       .  A
C3880      C3885   1.453       .  S
C3881      C3882   1.431       .  A
C3882      C3883   1.423       .  A
C3883      C3884   1.413       .  A
C3883      C3886   1.453       .  S
C3884      C3887   1.454       .  S
C3886      N3891   1.157       .  T
C3887      N3889   1.158       .  T
C3888      N3890   1.157       .  T
C3893      C3894   1.405       .  A
C3893      C3898   1.406       .  A
C3894      C3895   1.408       .  A
C3894      C3899   1.455       .  S
C3895      C3896   1.430       .  A
C3896      C3897   1.426       .  A
C3897      C3898   1.420       .  A
C3897      C3900   1.450       .  S
C3898      C3901   1.450       .  S
C3899      N3906   1.157       .  T
C3900      N3905   1.158       .  T
C3901      N3903   1.157       .  T
C3902      N3904   1.157   1_545  T
C3907      C3908   1.419       .  A
C3907      C3912   1.414       .  A
C3908      C3909   1.417       .  A
C3908      C3913   1.454       .  S
C3909      C3910   1.424       .  A
C3909      C3916   1.452       .  S
C3910      C3911   1.427       .  A
C3911      C3912   1.416       .  A
C3913      N3920   1.157       .  T
C3914      N3919   1.157       .  T
C3915      N3917   1.156       .  T
C3916      N3918   1.158       .  T
C3921      C3922   1.411       .  A
C3921      C3926   1.410       .  A
C3922      C3923   1.411       .  A
C3922      C3927   1.453       .  S
C3923      C3924   1.419       .  A
C3923      C3930   1.452       .  S
C3924      C3925   1.415       .  A
C3925      C3926   1.417       .  A
C3925      C3928   1.449       .  S
C3927      N3934   1.158       .  T
C3929      N3931   1.157       .  T
C3930      N3932   1.157       .  T
C3935      C3936   1.417       .  A
C3935      C3940   1.414       .  A
C3936      C3937   1.398       .  A
C3936      C3941   1.450       .  S
C3937      C3938   1.410       .  A
C3937      C3944   1.451       .  S
C3938      C3939   1.420       .  A
C3939      C3940   1.418       .  A
C3939      C3942   1.449       .  S
C3940      C3943   1.447       .  S
C3941      N3948   1.157       .  T
C3942      N3947   1.157       .  T
C3943      N3945   1.157       .  T
C3944      N3946   1.156       .  T
C3949      C3950   1.424       .  A
C3949      C3954   1.417       .  A
C3950      C3951   1.409       .  A
C3950      C3955   1.454       .  S
C3951      C3952   1.413       .  A
C3951      C3958   1.454       .  S
C3952      C3953   1.414       .  A
C3953      C3954   1.415       .  A
C3953      C3956   1.452       .  S
C3954      C3957   1.449       .  S
C3955      N3962   1.157       .  T
C3956      N3961   1.157       .  T
C3957      N3959   1.157       .  T
C3958      N3960   1.158       .  T
C3963      C3964   1.427       .  A
C3963      C3968   1.420       .  A
C3964      C3965   1.401       .  A
C3964      C3969   1.455       .  S
C3965      C3966   1.404       .  A
C3965      C3972   1.452       .  S
C3966      C3967   1.410       .  A
C3967      C3968   1.416       .  A
C3967      C3970   1.449       .  S
C3968      C3971   1.451       .  S
C3969      N3976   1.158       .  T
C3970      N3975   1.158       .  T
C3971      N3973   1.157       .  T
C3972      N3974   1.155   1_554  T
C3977      C3978   1.413       .  A
C3977      C3982   1.412       .  A
C3978      C3979   1.411       .  A
C3978      C3983   1.453       .  S
C3979      C3980   1.419       .  A
C3979      C3986   1.451       .  S
C3980      C3981   1.420       .  A
C3981      C3982   1.415       .  A
C3981      C3984   1.451       .  S
C3982      C3985   1.451       .  S
C3983      N3990   1.157       .  T
C3984      N3989   1.157       .  T
C3985      N3987   1.157       .  T
C3986      N3988   1.157       .  T
C3991      C3992   1.412       .  A
C3991      C3996   1.414       .  A
C3992      C3993   1.409       .  A
C3992      C3997   1.448       .  S
C3993      C3994   1.423       .  A
C3993      C4000   1.452       .  S
C3994      C3995   1.420       .  A
C3995      C3996   1.421       .  A
C3995      C3998   1.450       .  S
C3996      C3999   1.445       .  S
C3997      N4004   1.155       .  T
C3998      N4003   1.158       .  T
C3999      N4001   1.156       .  T
C4000      N4002   1.157       .  T
C4005      C4006   1.406       .  A
C4005      C4010   1.411       .  A
C4006      C4007   1.397       .  A
C4006      C4011   1.453       .  S
C4007      C4008   1.416       .  A
C4007      C4014   1.449       .  S
C4008      C4009   1.417       .  A
C4009      C4010   1.415       .  A
C4009      C4012   1.450       .  S
C4010      C4013   1.448       .  S
C4011      N4018   1.156       .  T
C4012      N4017   1.157       .  T
C4013      N4015   1.158       .  T
C4014      N4016   1.157       .  T
C4019      C4020   1.421       .  A
C4019      C4024   1.413       .  A
C4020      C4021   1.406       .  A
C4020      C4025   1.445       .  S
C4021      C4022   1.400       .  A
C4021      C4028   1.450       .  S
C4022      C4023   1.409       .  A
C4023      C4024   1.415       .  A
C4023      C4026   1.450       .  S
C4024      C4027   1.448       .  S
C4025      N4032   1.155       .  T
C4026      N4031   1.157       .  T
C4027      N4029   1.157       .  T
C4028      N4030   1.157       .  T
O4033      C4048   1.259       .  A
O4033     Al4041   1.899       .  S
C4034      O4044   1.262       .  A
C4034      O4035   1.260       .  A
C4034      C4553   1.491       .  S
O4035     Al4037   1.894       .  S
O4036      C4038   1.255       .  A
O4036     Al4037   1.859       .  S
Al4037     O4045   1.866       .  S
Al4037     O4047   1.912       .  S
Al4037     O4046   1.762       .  S
C4038      O4051   1.261       .  A
C4038      C4581   1.487       .  S
O4039      C4049   1.262       .  A
O4039     Al4041   1.890       .  S
O4040      C4053   1.265       .  A
O4040     Al4050   1.919       .  S
Al4041     O4054   1.890       .  S
Al4041     O4051   1.933       .  S
Al4041     O4046   1.785       .  S
O4042      C4049   1.271       .  A
O4042     Al4050   1.938       .  S
O4043      C4052   1.270       .  A
O4043     Al4050   1.958       .  S
O4044     Al4050   1.914       .  S
O4045      C4052   1.254       .  A
O4046     Al4050   1.780       .  S
O4047      C4048   1.263       .  A
C4048      C4598   1.470       .  S
C4049      C4528   1.487       .  S
C4052      C4570   1.514       .  S
C4053      O4054   1.259       .  A
C4053      C4539   1.504       .  S
O4055      C4070   1.259       .  A
O4055     Al4063   1.904       .  S
C4056      O4057   1.260       .  A
C4056      C4483   1.509       .  S
O4057     Al4059   1.903       .  S
O4058      C4060   1.260       .  A
O4058     Al4059   1.877       .  S
Al4059     O4067   1.876       .  S
Al4059     O4069   1.898       .  S
Al4059     O4068   1.773       .  S
C4060      O4073   1.261       .  A
C4060      C4514   1.499       .  S
O4061     Al4063   1.894       .  S
O4062      C4075   1.265       .  A
O4062     Al4072   1.914       .  S
Al4063     O4076   1.899       .  S
Al4063     O4073   1.918       .  S
Al4063     O4068   1.788       .  S
O4064      C4071   1.265       .  A
O4064     Al4072   1.927       .  S
O4065     Al4072   1.949       .  S
O4066     Al4072   1.921       .  S
O4067      C4074   1.256       .  A
O4069      C4070   1.259       .  A
C4070      C4584   1.482       .  S
C4071      C4458   1.513       .  S
C4074      C4497   1.486       .  S
C4075      C4472   1.513       .  S
O4077      C4092   1.266       .  A
O4077     Al4085   1.924       .  S
C4078      O4079   1.253       .  A
C4078      C4441   1.486       .  S
O4079     Al4081   1.881       .  S
O4080      C4082   1.266       .  A
O4080     Al4081   1.923       .  S
Al4081     O4089   1.889       .  S
Al4081     O4091   1.891       .  S
Al4081     O4090   1.781       .  S
C4082      O4095   1.255       .  A
C4082      C4595   1.493       .  S
O4083     Al4085   1.898       .  S
O4084      C4097   1.258   1_655  A
O4084     Al4094   1.906   1_655  S
Al4085     O4098   1.888       .  S
Al4085     O4095   1.882       .  S
Al4085     O4090   1.792       .  S
O4086      C4093   1.263   1_655  A
O4086     Al4094   1.901   1_655  S
O4087     Al4094   1.924       .  S
O4088     Al4094   1.917       .  S
O4089      C4096   1.261       .  A
O4091      C4092   1.258       .  A
C4092      C4511   1.487       .  S
C4093      C4416   1.508   1_455  S
C4096      C4430   1.485       .  S
C4097      C4399   1.498   1_455  S
O4099      C4114   1.258       .  A
O4099     Al4107   1.919       .  S
C4100      O4110   1.265       .  A
C4100      O4101   1.253       .  A
C4100      C4455   1.497       .  S
O4101     Al4103   1.872       .  S
O4102     Al4103   1.893       .  S
Al4103     O4111   1.877       .  S
Al4103     O4113   1.867       .  S
Al4103     O4112   1.771       .  S
C4104      O4117   1.262       .  A
C4104      C4388   1.496       .  S
O4105      C4115   1.256       .  A
O4105     Al4107   1.880       .  S
O4106      C4119   1.265       .  A
Al4107     O4120   1.880       .  S
Al4107     O4117   1.911       .  S
O4108      C4115   1.261       .  A
O4109      C4118   1.261       .  A
O4109     Al4116   1.924       .  S
O4110     Al4116   1.934       .  S
O4111      C4118   1.260       .  A
O4112     Al4116   1.796       .  S
C4114      C4371   1.484       .  S
C4115      C4360   1.508       .  S
C4118      C4542   1.471       .  S
C4119      O4120   1.259       .  A
C4119      C4346   1.508       .  S
O4121      C4136   1.261       .  A
O4121     Al4129   1.919       .  S
C4122      O4132   1.259       .  A
C4122      O4123   1.248       .  A
C4122      C4413   1.488       .  S
O4123     Al4125   1.850       .  S
O4124     Al4125   1.893       .  S
Al4125     O4133   1.869       .  S
Al4125     O4135   1.888       .  S
Al4125     O4134   1.786       .  S
C4126      O4139   1.263       .  A
C4126      C4329   1.503       .  S
O4127      C4137   1.264       .  A
O4127     Al4129   1.912       .  S
O4128      C4141   1.264       .  A
Al4129     O4142   1.878       .  S
Al4129     O4139   1.918       .  S
O4130      C4137   1.264       .  A
O4131      C4140   1.261       .  A
O4131     Al4138   1.921       .  S
O4132     Al4138   1.916       .  S
O4133      C4140   1.257       .  A
O4134     Al4138   1.801       .  S
C4136      C4385   1.486       .  S
C4137      C4304   1.490       .  S
C4140      C4469   1.477       .  S
C4141      O4142   1.255       .  A
C4141      C4318   1.507       .  S
O4143      C4158   1.263       .  A
O4143     Al4151   1.925       .  S
C4144      O4154   1.263       .  A
C4144      O4145   1.257       .  A
C4144      C4525   1.499       .  S
O4145     Al4147   1.903       .  S
O4146     Al4147   1.882       .  S
Al4147     O4155   1.863       .  S
Al4147     O4157   1.883       .  S
Al4147     O4156   1.770       .  S
C4148      O4161   1.260       .  A
C4148      C4374   1.470       .  S
O4149      C4159   1.260       .  A
O4149     Al4151   1.902       .  S
O4150      C4163   1.264       .  A
Al4151     O4164   1.906       .  S
Al4151     O4161   1.917       .  S
O4152      C4159   1.265       .  A
O4153      C4162   1.269       .  A
O4153     Al4160   1.955       .  S
O4154     Al4160   1.919       .  S
O4155      C4162   1.255       .  A
O4156     Al4160   1.782       .  S
C4158      C4332   1.478       .  S
C4159      C4276   1.511       .  S
C4162      C4402   1.480       .  S
C4163      O4164   1.262       .  A
C4163      C4287   1.479       .  S
O4165      C4180   1.266       .  A
O4165     Al4173   1.941       .  S
C4166      O4176   1.270       .  A
C4166      O4167   1.252       .  A
C4166      C4273   1.479       .  S
O4167     Al4169   1.858       .  S
O4168      C4170   1.260       .  A
O4168     Al4169   1.909       .  S
Al4169     O4177   1.931       .  S
Al4169     O4179   1.877       .  S
Al4169     O4178   1.773       .  S
C4170      O4183   1.259       .  A
C4170      C4259   1.480       .  S
O4171      C4181   1.269       .  A
O4171     Al4173   1.939       .  S
O4172      C4185   1.269       .  A
O4172     Al4182   1.950       .  S
Al4173     O4186   1.889       .  S
Al4173     O4183   1.900       .  S
Al4173     O4178   1.785       .  S
O4174      C4181   1.261       .  A
O4174     Al4182   1.889       .  S
O4175      C4184   1.260       .  A
O4175     Al4182   1.902       .  S
O4176     Al4182   1.961       .  S
O4177      C4184   1.263       .  A
O4178     Al4182   1.783       .  S
O4179      C4180   1.258       .  A
C4181      C4556   1.501       .  S
C4184      C4315   1.484       .  S
C4185      O4186   1.258       .  A
C4185      C4500   1.500       .  S
O4187      C4202   1.258       .  A
O4187     Al4195   1.910       .  S
C4188      O4198   1.260       .  A
C4188      O4189   1.257       .  A
C4188      C4357   1.499       .  S
O4189     Al4191   1.888       .  S
O4190      C4192   1.256       .  A
O4190     Al4191   1.861       .  S
Al4191     O4199   1.870       .  S
Al4191     O4201   1.903       .  S
Al4191     O4200   1.773       .  S
C4192      O4205   1.264       .  A
O4193      C4203   1.260       .  A
O4193     Al4195   1.883       .  S
O4194      C4207   1.265       .  A
O4194     Al4204   1.922       .  S
Al4195     O4208   1.890       .  S
Al4195     O4205   1.938       .  S
Al4195     O4200   1.788       .  S
O4196      C4203   1.268       .  A
O4196     Al4204   1.933       .  S
O4197      C4206   1.270       .  A
O4197     Al4204   1.952       .  S
O4198     Al4204   1.912       .  S
O4199      C4206   1.257       .  A
O4200     Al4204   1.791       .  S
O4201      C4202   1.259       .  A
C4203      C4486   1.516       .  S
C4206      C4290   1.509       .  S
C4207      O4208   1.259       .  A
C4207      C4427   1.510       .  S
O4209      C4224   1.264       .  A
O4209     Al4217   1.920       .  S
C4210      O4220   1.264       .  A
C4210      O4211   1.256       .  A
C4210      C4301   1.506       .  S
O4211     Al4213   1.909       .  S
O4212      C4214   1.259       .  A
O4212     Al4213   1.879       .  S
Al4213     O4221   1.844       .  S
Al4213     O4223   1.889       .  S
Al4213     O4222   1.771       .  S
C4214      O4227   1.268       .  A
O4215      C4225   1.259       .  A
O4215     Al4217   1.895       .  S
O4216      C4229   1.265       .  A
O4216     Al4226   1.924       .  S
Al4217     O4230   1.937       .  S
Al4217     O4227   1.945       .  S
Al4217     O4222   1.780       .  S
O4218      C4225   1.268       .  A
O4218     Al4226   1.928       .  S
O4219      C4228   1.272       .  A
O4219     Al4226   1.965       .  S
O4220     Al4226   1.933       .  S
O4221      C4228   1.254       .  A
O4222     Al4226   1.781       .  S
O4223      C4224   1.257       .  A
C4224      C4234   1.482       .  S
C4225      C4444   1.509       .  S
C4228      C4343   1.478       .  S
C4229      O4230   1.269       .  A
C4229      C4567   1.500       .  S
C4231      C4232   1.408       .  A
C4231      C4236   1.413       .  A
C4232      C4233   1.399       .  A
C4232      C4237   1.452       .  S
C4233      C4234   1.416       .  A
C4233      C4240   1.449       .  S
C4234      C4235   1.416       .  A
C4235      C4236   1.417       .  A
C4235      C4238   1.449       .  S
C4237      N4244   1.156       .  T
C4238      N4243   1.157       .  T
C4239      N4241   1.157       .  T
C4240      N4242   1.157       .  T
C4245      C4246   1.412       .  A
C4245      C4250   1.414       .  A
C4246      C4247   1.417       .  A
C4246      C4251   1.449       .  S
C4247      C4248   1.412       .  A
C4247      C4254   1.448       .  S
C4248      C4249   1.411       .  A
C4249      C4250   1.402       .  A
C4249      C4252   1.454   1_655  S
C4250      C4253   1.453       .  S
C4251      N4258   1.157       .  T
C4254      N4256   1.157       .  T
C4259      C4260   1.410       .  A
C4259      C4264   1.415       .  A
C4260      C4261   1.409       .  A
C4260      C4265   1.451       .  S
C4261      C4262   1.410       .  A
C4261      C4268   1.449       .  S
C4262      C4263   1.407       .  A
C4263      C4264   1.413       .  A
C4264      C4267   1.450       .  S
C4265      N4272   1.157       .  T
C4266      N4271   1.157       .  T
C4267      N4269   1.157       .  T
C4268      N4270   1.157       .  T
C4273      C4274   1.407       .  A
C4273      C4278   1.407       .  A
C4274      C4275   1.411       .  A
C4274      C4279   1.451       .  S
C4275      C4276   1.423       .  A
C4275      C4282   1.450       .  S
C4276      C4277   1.426       .  A
C4277      C4278   1.416       .  A
C4277      C4280   1.450       .  S
C4278      C4281   1.452       .  S
C4279      N4286   1.157       .  T
C4280      N4285   1.158       .  T
C4281      N4283   1.157       .  T
C4282      N4284   1.156   1_556  T
C4287      C4288   1.406       .  A
C4287      C4292   1.405       .  A
C4288      C4293   1.451       .  S
C4289      C4290   1.422       .  A
C4289      C4296   1.449       .  S
C4290      C4291   1.429       .  A
C4291      C4294   1.453       .  S
C4292      C4295   1.453       .  S
C4293      N4300   1.157       .  T
C4294      N4299   1.158       .  T
C4295      N4297   1.157       .  T
C4296      N4298   1.158       .  T
C4301      C4302   1.419       .  A
C4302      C4307   1.448       .  S
C4303      C4304   1.412       .  A
C4303      C4310   1.451       .  S
C4304      C4305   1.411       .  A
C4305      C4306   1.409       .  A
C4305      C4308   1.456       .  S
C4307      N4314   1.157       .  T
C4308      N4313   1.157       .  T
C4309      N4311   1.158       .  T
C4310      N4312   1.157       .  T
C4315      C4316   1.409       .  A
C4316      C4321   1.449       .  S
C4317      C4318   1.422       .  A
C4317      C4324   1.449       .  S
C4318      C4319   1.427       .  A
C4319      C4320   1.408       .  A
C4319      C4322   1.454       .  S
C4320      C4323   1.452       .  S
C4321      N4328   1.157       .  T
C4322      N4327   1.157       .  T
C4323      N4325   1.157       .  T
C4329      C4330   1.424       .  A
C4330      C4331   1.415       .  A
C4330      C4335   1.451       .  S
C4331      C4332   1.409       .  A
C4331      C4338   1.451       .  S
C4333      C4334   1.408       .  A
C4333      C4336   1.451       .  S
C4334      C4337   1.450       .  S
C4335      N4342   1.157       .  T
C4336      N4341   1.157       .  T
C4337      N4339   1.157       .  T
C4338      N4340   1.157       .  T
C4343      C4344   1.409       .  A
C4343      C4348   1.409       .  A
C4344      C4345   1.417       .  A
C4344      C4349   1.450       .  S
C4345      C4346   1.422       .  A
C4345      C4352   1.450       .  S
C4346      C4347   1.425       .  A
C4347      C4348   1.405       .  A
C4347      C4350   1.454       .  S
C4348      C4351   1.455       .  S
C4349      N4356   1.157       .  T
C4350      N4355   1.157       .  T
C4351      N4353   1.158       .  T
C4357      C4362   1.416       .  A
C4358      C4359   1.415       .  A
C4358      C4363   1.450       .  S
C4359      C4360   1.424       .  A
C4359      C4366   1.453       .  S
C4361      C4362   1.411   1_545  A
C4361      C4364   1.451       .  S
C4362      C4365   1.454       .  S
C4363      N4370   1.158       .  T
C4365      N4367   1.157       .  T
C4366      N4368   1.157       .  T
C4371      C4372   1.414       .  A
C4371      C4376   1.415       .  A
C4373      C4380   1.450       .  S
C4374      C4375   1.406       .  A
C4375      C4376   1.395       .  A
C4375      C4378   1.453       .  S
C4376      C4379   1.451       .  S
C4377      N4384   1.157       .  T
C4378      N4383   1.157   1_556  T
C4379      N4381   1.155       .  T
C4380      N4382   1.157       .  T
C4385      C4386   1.414       .  A
C4386      C4387   1.417       .  A
C4386      C4391   1.451       .  S
C4387      C4388   1.422       .  A
C4387      C4394   1.450       .  S
C4389      C4390   1.400       .  A
C4389      C4392   1.454       .  S
C4390      C4393   1.447       .  S
C4391      N4398   1.157       .  T
C4392      N4397   1.157       .  T
C4393      N4395   1.157       .  T
C4394      N4396   1.157       .  T
C4399      C4400   1.417       .  A
C4399      C4404   1.420       .  A
C4400      C4401   1.412       .  A
C4400      C4405   1.451       .  S
C4401      C4402   1.411       .  A
C4401      C4408   1.452       .  S
C4402      C4403   1.406       .  A
C4403      C4404   1.414       .  A
C4403      C4406   1.451       .  S
C4405      N4412   1.158       .  T
C4407      N4409   1.157       .  T
C4408      N4410   1.157       .  T
C4413      C4414   1.416       .  A
C4413      C4418   1.411       .  A
C4414      C4415   1.406       .  A
C4414      C4419   1.456       .  S
C4415      C4416   1.424       .  A
C4415      C4422   1.454       .  S
C4416      C4417   1.426       .  A
C4417      C4418   1.416       .  A
C4418      C4421   1.452       .  S
C4419      N4426   1.157       .  T
C4420      N4425   1.157       .  T
C4422      N4424   1.158       .  T
C4427      C4428   1.427       .  A
C4427      C4432   1.423       .  A
C4428      C4429   1.407       .  A
C4428      C4433   1.453       .  S
C4429      C4430   1.406       .  A
C4429      C4436   1.453       .  S
C4430      C4431   1.407       .  A
C4431      C4432   1.419       .  A
C4431      C4434   1.448       .  S
C4432      C4435   1.447       .  S
C4433      N4440   1.157       .  T
C4434      N4439   1.157       .  T
C4435      N4437   1.157       .  T
C4436      N4438   1.157       .  T
C4441      C4442   1.409       .  A
C4441      C4446   1.410       .  A
C4442      C4443   1.417       .  A
C4442      C4447   1.452       .  S
C4443      C4444   1.428       .  A
C4443      C4450   1.452       .  S
C4444      C4445   1.420       .  A
C4445      C4446   1.409       .  A
C4445      C4448   1.450       .  S
C4446      C4449   1.452       .  S
C4448      N4453   1.157       .  T
C4449      N4451   1.156       .  T
C4450      N4452   1.157       .  T
C4455      C4456   1.411       .  A
C4455      C4460   1.418       .  A
C4456      C4457   1.418       .  A
C4456      C4461   1.452       .  S
C4457      C4458   1.429       .  A
C4458      C4459   1.422       .  A
C4459      C4460   1.410       .  A
C4459      C4462   1.454       .  S
C4460      C4463   1.454       .  S
C4462      N4467   1.158       .  T
C4463      N4465   1.157       .  T
C4464      N4466   1.157       .  T
C4469      C4470   1.404       .  A
C4469      C4474   1.404       .  A
C4470      C4471   1.409       .  A
C4470      C4475   1.455       .  S
C4471      C4472   1.431       .  A
C4472      C4473   1.427       .  A
C4473      C4474   1.416       .  A
C4473      C4476   1.451       .  S
C4474      C4477   1.450       .  S
C4475      N4482   1.157       .  T
C4476      N4481   1.158       .  T
C4477      N4479   1.157       .  T
C4478      N4480   1.158       .  T
C4483      C4484   1.421       .  A
C4483      C4488   1.416       .  A
C4484      C4485   1.418       .  A
C4484      C4489   1.453       .  S
C4485      C4486   1.423       .  A
C4485      C4492   1.452       .  S
C4486      C4487   1.425       .  A
C4487      C4488   1.415       .  A
C4489      N4496   1.157       .  T
C4490      N4495   1.158       .  T
C4491      N4493   1.155       .  T
C4492      N4494   1.158       .  T
C4497      C4498   1.408       .  A
C4497      C4502   1.409       .  A
C4498      C4499   1.412       .  A
C4498      C4503   1.452       .  S
C4499      C4500   1.420       .  A
C4499      C4506   1.451       .  S
C4500      C4501   1.418       .  A
C4501      C4502   1.419       .  A
C4501      C4504   1.449       .  S
C4503      N4510   1.157       .  T
C4505      N4507   1.157       .  T
C4506      N4508   1.157       .  T
C4511      C4512   1.416       .  A
C4511      C4516   1.414       .  A
C4512      C4513   1.399       .  A
C4512      C4517   1.450       .  S
C4513      C4514   1.409       .  A
C4513      C4520   1.450       .  S
C4514      C4515   1.420       .  A
C4515      C4516   1.419       .  A
C4515      C4518   1.449       .  S
C4516      C4519   1.448       .  S
C4517      N4524   1.157       .  T
C4518      N4523   1.157       .  T
C4519      N4521   1.157       .  T
C4520      N4522   1.155       .  T
C4525      C4526   1.423       .  A
C4525      C4530   1.417       .  A
C4526      C4527   1.409       .  A
C4526      C4531   1.453       .  S
C4527      C4528   1.411       .  A
C4527      C4534   1.454       .  S
C4528      C4529   1.414       .  A
C4529      C4530   1.415       .  A
C4529      C4532   1.451       .  S
C4530      C4533   1.450       .  S
C4531      N4538   1.157       .  T
C4532      N4537   1.157       .  T
C4533      N4535   1.157       .  T
C4534      N4536   1.157       .  T
C4539      C4540   1.429       .  A
C4539      C4544   1.424       .  A
C4540      C4541   1.402       .  A
C4540      C4545   1.453       .  S
C4541      C4542   1.400       .  A
C4541      C4548   1.453       .  S
C4542      C4543   1.406       .  A
C4543      C4544   1.416       .  A
C4543      C4546   1.449       .  S
C4544      C4547   1.451       .  S
C4545      N4552   1.158       .  T
C4546      N4551   1.158       .  T
C4547      N4549   1.157       .  T
C4548      N4550   1.156       .  T
C4553      C4554   1.413       .  A
C4553      C4558   1.413       .  A
C4554      C4555   1.410       .  A
C4554      C4559   1.454       .  S
C4555      C4556   1.420       .  A
C4555      C4562   1.451       .  S
C4556      C4557   1.419       .  A
C4557      C4558   1.416       .  A
C4557      C4560   1.451       .  S
C4558      C4561   1.450       .  S
C4559      N4566   1.157       .  T
C4560      N4565   1.157       .  T
C4561      N4563   1.157       .  T
C4562      N4564   1.157       .  T
C4567      C4568   1.410       .  A
C4567      C4572   1.413       .  A
C4568      C4569   1.410       .  A
C4568      C4573   1.447       .  S
C4569      C4570   1.424       .  A
C4569      C4576   1.454       .  S
C4570      C4571   1.420       .  A
C4571      C4572   1.421       .  A
C4571      C4574   1.450       .  S
C4572      C4575   1.444       .  S
C4573      N4580   1.155       .  T
C4574      N4579   1.158       .  T
C4575      N4577   1.156       .  T
C4576      N4578   1.157       .  T
C4581      C4582   1.406       .  A
C4581      C4586   1.411       .  A
C4582      C4583   1.398       .  A
C4582      C4587   1.453       .  S
C4583      C4584   1.414       .  A
C4583      C4590   1.446       .  S
C4584      C4585   1.417       .  A
C4585      C4586   1.417       .  A
C4585      C4588   1.449       .  S
C4586      C4589   1.447       .  S
C4587      N4594   1.156       .  T
C4588      N4593   1.157       .  T
C4589      N4591   1.157       .  T
C4590      N4592   1.156       .  T
C4595      C4596   1.423       .  A
C4595      C4600   1.411       .  A
C4596      C4597   1.407       .  A
C4596      C4601   1.449       .  S
C4597      C4598   1.401       .  A
C4597      C4604   1.449       .  S
C4598      C4599   1.408       .  A
C4599      C4600   1.411       .  A
C4599      C4602   1.449       .  S
C4600      C4603   1.448       .  S
C4601      N4608   1.157       .  T
C4602      N4607   1.157       .  T
C4603      N4605   1.157       .  T
C4604      N4606   1.157       .  T
