geometry optimzed in LAMMPS
_audit_creation_date              2020-12-01 
_audit_creation_method            'lammps2cif' 
_symmetry_space_group_name_H-M    'P1' 
_symmetry_Int_Tables_number       1 
_symmetry_cell_setting            triclinic 
loop_ 
_symmetry_equiv_pos_as_xyz 
  x,y,z 
_cell_length_a                    81.94951348 
_cell_length_b                    81.88626156546539 
_cell_length_c                    49.00824256672275 
_cell_angle_alpha                 90.04982805651194 
_cell_angle_beta                  89.98186078674824 
_cell_angle_gamma                 89.79780780322523 
loop_ 
_atom_site_label 
_atom_site_type_symbol 
_atom_site_fract_x 
_atom_site_fract_y 
_atom_site_fract_z 
_atom_site_charge 
N1          N  0.61935156  0.76520746  0.94166344    -0.27200
N2          N  0.63147107  0.77167202  0.95574142    -0.35100
C3          C  0.64444770  0.77351687  0.93942735     0.01100
C4          C  0.64046377  0.76784652  0.91375843     0.07100
C5          C  0.62444536  0.76256592  0.91584364    -0.06000
H6          H  0.65618702  0.77799996  0.94613517     0.07800
H7          H  0.61708159  0.75720468  0.89988181     0.09000
Cu8        Cu  0.63122179  0.77548513  0.99727726     0.44200
Cu9        Cu  0.59682611  0.76032429  0.95942956     0.42000
Cu10       Cu  0.59812232  0.75899513  0.03464526     0.43900
N11         N  0.63206262  0.77203439  0.03887174    -0.34600
N12         N  0.62028148  0.76489739  0.05278177    -0.28900
C13         C  0.62539216  0.76251524  0.07862191    -0.05000
C14         C  0.64110353  0.76864206  0.08098391     0.07300
C15         C  0.64487323  0.77458615  0.05535162     0.01100
H16         H  0.61826338  0.75668054  0.09440388     0.08700
H17         H  0.65640221  0.77962898  0.04874602     0.07800
N18         N  0.57696495  0.75718755  0.01135294    -0.36100
N19         N  0.57641667  0.75780849  0.98439458    -0.28200
C20         C  0.56071901  0.75732568  0.97636290    -0.03500
C21         C  0.55083039  0.75636697  0.99933092     0.05100
C22         C  0.56165864  0.75628768  0.02110001     0.03200
H23         H  0.55685441  0.75810773  0.95531068     0.08300
H24         H  0.55872540  0.75588440  0.04258978     0.07200
N25         N  0.35863604  0.74873314  0.05422765    -0.27200
N26         N  0.34751392  0.74139026  0.03917030    -0.35100
C27         C  0.33391684  0.73930434  0.05383208     0.01100
C28         C  0.33639026  0.74570705  0.07959243     0.07100
C29         C  0.35233399  0.75146634  0.07928243    -0.06000
H30         H  0.32279057  0.73415511  0.04572890     0.07800
H31         H  0.35852743  0.75797842  0.09544217     0.09000
Cu32       Cu  0.34957477  0.73744430  0.99798983     0.44200
Cu33       Cu  0.38086458  0.75557939  0.03729276     0.42000
Cu34       Cu  0.38185331  0.75449390  0.96048776     0.43900
N35         N  0.34849214  0.74045039  0.95648434    -0.34600
N36         N  0.36014928  0.74727252  0.94189720    -0.28900
C37         C  0.35469500  0.74924803  0.91610011    -0.05000
C38         C  0.33872595  0.74356590  0.91478275     0.07300
C39         C  0.33534777  0.73802291  0.94080305     0.01100
H40         H  0.36147030  0.75518863  0.89999370     0.08700
H41         H  0.32392255  0.73317647  0.94824827     0.07800
N42         N  0.40187633  0.75823060  0.98606285    -0.36100
N43         N  0.40153665  0.75861897  0.01308363    -0.28200
C44         C  0.41691595  0.75976539  0.02246575    -0.03500
C45         C  0.42754959  0.76002047  0.00043330     0.05100
C46         C  0.41747960  0.75912322  0.97771633     0.03200
H47         H  0.42007747  0.75961634  0.04387873     0.08300
H48         H  0.42114536  0.75859801  0.95654534     0.07200
N49         N  0.74423554  0.37380982  0.06037656    -0.27200
N50         N  0.75148607  0.36190748  0.04671792    -0.35100
C51         C  0.75303664  0.34878446  0.06291979     0.01100
C52         C  0.74646199  0.35243912  0.08824667     0.07100
C53         C  0.74107456  0.36851776  0.08591148    -0.06000
H54         H  0.75821376  0.33727106  0.05634331     0.07800
H55         H  0.73474417  0.37562483  0.10125166     0.09000
Cu56       Cu  0.75670425  0.36273014  0.00549736     0.44200
Cu57       Cu  0.73817088  0.39609359  0.04203470     0.42000
Cu58       Cu  0.73947849  0.39550395  0.96689459     0.43900
N59         N  0.75382009  0.36176873  0.96366618    -0.34600
N60         N  0.74646087  0.37331661  0.94938884    -0.28900
C61         C  0.74397745  0.36776995  0.92380361    -0.05000
C62         C  0.75021534  0.35200827  0.92195423     0.07300
C63         C  0.75641116  0.34870605  0.94763736     0.01100
H64         H  0.73778568  0.37455985  0.90794218     0.08700
H65         H  0.76144736  0.33723668  0.95471679     0.07800
N66         N  0.73502853  0.41635906  0.99030743    -0.36100
N67         N  0.73462011  0.41663633  0.01730633    -0.28200
C68         C  0.73280458  0.43222013  0.02567089    -0.03500
C69         C  0.73207720  0.44231354  0.00291958     0.05100
C70         C  0.73344399  0.43172533  0.98089367     0.03200
H71         H  0.73249630  0.43592268  0.04684722     0.08300
H72         H  0.73406493  0.43498022  0.95954275     0.07200
N73         N  0.74157535  0.63497361  0.94332843    -0.27200
N74         N  0.74825636  0.64686618  0.95759595    -0.35100
C75         C  0.74868780  0.66049536  0.94255652     0.01100
C76         C  0.74192328  0.65723701  0.91728977     0.07100
C77         C  0.73766747  0.64079558  0.91834764    -0.06000
H78         H  0.75308033  0.67211298  0.95000894     0.07800
H79         H  0.73146907  0.63385202  0.90270807     0.09000
Cu80       Cu  0.75338824  0.64533406  0.99850859     0.44200
Cu81       Cu  0.73720894  0.61236547  0.96166888     0.42000
Cu82       Cu  0.73755121  0.61272580  0.03822277     0.43900
N83         N  0.74936638  0.64717665  0.03972471    -0.34600
N84         N  0.74265480  0.63565919  0.05478343    -0.28900
C85         C  0.73936098  0.64193080  0.07969057    -0.05000
C86         C  0.74412590  0.65824229  0.07997465     0.07300
C87         C  0.75051588  0.66096613  0.05426531     0.01100
H88         H  0.73326510  0.63535156  0.09586048     0.08700
H89         H  0.75508182  0.67232339  0.04609042     0.07800
N90         N  0.73568547  0.59183118  0.01384395    -0.36100
N91         N  0.73551896  0.59177966  0.98680153    -0.28200
C92         C  0.73477206  0.57622912  0.97801300    -0.03500
C93         C  0.73449859  0.56588060  0.00041664     0.05100
C94         C  0.73510295  0.57628105  0.02278806     0.03200
H95         H  0.73480719  0.57275607  0.95672673     0.08300
H96         H  0.73514887  0.57285394  0.04409172     0.07200
N97         N  0.35932495  0.24780514  0.94560626    -0.27200
N98         N  0.34746861  0.24142810  0.96030403    -0.35100
C99         C  0.33382378  0.24062399  0.94541174     0.01100
C100        C  0.33691948  0.24689857  0.91971635     0.07100
C101        C  0.35338053  0.25122968  0.92048035    -0.06000
H102        H  0.32234512  0.23624853  0.95336899     0.07800
H103        H  0.36031334  0.25703001  0.90442285     0.09000
Cu104      Cu  0.34885019  0.23692053  0.00139905     0.44200
Cu105      Cu  0.38219019  0.25206226  0.96348572     0.42000
Cu106      Cu  0.38233571  0.24919720  0.04066515     0.43900
N107        N  0.34717801  0.24041178  0.04275522    -0.34600
N108        N  0.35929879  0.24560615  0.05813592    -0.28900
C109        C  0.35335757  0.24901808  0.08328173    -0.05000
C110        C  0.33661806  0.24599849  0.08327850     0.07300
C111        C  0.33332651  0.24042390  0.05720848     0.01100
H112        H  0.36045858  0.25417028  0.09976043     0.08700
H113        H  0.32157110  0.23723704  0.04876663     0.07800
N114        N  0.40291374  0.25221949  0.01571333    -0.36100
N115        N  0.40286871  0.25359009  0.98873789    -0.28200
C116        C  0.41834364  0.25572720  0.98012574    -0.03500
C117        C  0.42869612  0.25560924  0.00255892     0.05100
C118        C  0.41840633  0.25331328  0.02470325     0.03200
H119        H  0.42179776  0.25704272  0.95894564     0.08300
H120        H  0.42185769  0.25272154  0.04597615     0.07200
N121        N  0.62208862  0.26138258  0.95514172    -0.27200
N122        N  0.63426778  0.25590553  0.97021231    -0.35100
C123        C  0.64770261  0.25447674  0.95490191     0.01100
C124        C  0.64405873  0.25930310  0.92855669     0.07100
C125        C  0.62757884  0.26354782  0.92938186    -0.06000
H126        H  0.65929228  0.25020636  0.96269594     0.07800
H127        H  0.62021799  0.26809307  0.91270392     0.09000
Cu128      Cu  0.63307393  0.25160268  0.01137914     0.44200
Cu129      Cu  0.59906052  0.26530571  0.97240501     0.42000
Cu130      Cu  0.59779390  0.26183439  0.04881149     0.43900
N131        N  0.63288391  0.25223449  0.05320894    -0.34600
N132        N  0.62012078  0.25686114  0.06773721    -0.28900
C133        C  0.62457203  0.25760520  0.09423480    -0.05000
C134        C  0.64089711  0.25302103  0.09622055     0.07300
C135        C  0.64567260  0.24973592  0.06973469     0.01100
H136        H  0.61658763  0.26127927  0.11072883     0.08700
H137        H  0.65778274  0.24649058  0.06273462     0.07800
N138        N  0.57744690  0.26437087  0.02331849    -0.36100
N139        N  0.57790719  0.26585322  0.99639510    -0.28200
C140        C  0.56250447  0.26666924  0.98689094    -0.03500
C141        C  0.55175470  0.26552525  0.00869003     0.05100
C142        C  0.56174081  0.26408432  0.03143454     0.03200
H143        H  0.55939079  0.26743871  0.96548752     0.08300
H144        H  0.55791553  0.26276189  0.05243575     0.07200
N145        N  0.23256590  0.63403633  0.93908607    -0.27200
N146        N  0.22439064  0.64530249  0.95279589    -0.35100
C147        C  0.22121332  0.65798628  0.93636343     0.01100
C148        C  0.22780939  0.65479245  0.91095814     0.07100
C149        C  0.23500622  0.63945797  0.91338931    -0.06000
H150        H  0.21541468  0.66919302  0.94301129     0.07800
H151        H  0.24168495  0.63285747  0.89782701     0.09000
Cu152      Cu  0.22066515  0.64498812  0.99440926     0.44200
Cu153      Cu  0.23982403  0.61221018  0.95745165     0.42000
Cu154      Cu  0.23872732  0.61319133  0.03290836     0.43900
N155        N  0.22497230  0.64706510  0.03573539    -0.34600
N156        N  0.23257840  0.63570264  0.05003417    -0.28900
C157        C  0.23556628  0.64158481  0.07523985    -0.05000
C158        C  0.22941759  0.65740114  0.07681379     0.07300
C159        C  0.22276733  0.66038649  0.05133833     0.01100
H160        H  0.24190008  0.63492189  0.09109738     0.08700
H161        H  0.21748865  0.67172118  0.04414907     0.07800
N162        N  0.24163480  0.59210093  0.00946152    -0.36100
N163        N  0.24215812  0.59172142  0.98248124    -0.28200
C164        C  0.24297352  0.57605186  0.97421848    -0.03500
C165        C  0.24289465  0.56596922  0.99701416     0.05100
C166        C  0.24209079  0.57670138  0.01896596     0.03200
H167        H  0.24303493  0.57235629  0.95304107     0.08300
H168        H  0.24142584  0.57365450  0.04038444     0.07200
N169        N  0.23311636  0.37245635  0.94452872    -0.27200
N170        N  0.22671134  0.36050723  0.95908620    -0.35100
C171        C  0.22493072  0.34727968  0.94326703     0.01100
C172        C  0.23051278  0.35091828  0.91735807     0.07100
C173        C  0.23570808  0.36701417  0.91888382    -0.06000
H174        H  0.22035239  0.33567613  0.95044486     0.07800
H175        H  0.24086376  0.37425432  0.90258819     0.09000
Cu176      Cu  0.22209558  0.36158579  0.00044921     0.44200
Cu177      Cu  0.23773169  0.39540321  0.96116645     0.42000
Cu178      Cu  0.23592366  0.39624523  0.03650229     0.43900
N179        N  0.22354026  0.36223123  0.04245858    -0.34600
N180        N  0.22961886  0.37472187  0.05606672    -0.28900
C181        C  0.23118269  0.37053392  0.08252657    -0.05000
C182        C  0.22563349  0.35465392  0.08561386     0.07300
C183        C  0.22085825  0.34984371  0.05976286     0.01100
H184        H  0.23633012  0.37830587  0.09814637     0.08700
H185        H  0.21677512  0.33783862  0.05361738     0.07800
N186        N  0.23906040  0.41658896  0.01182814    -0.36100
N187        N  0.23962551  0.41647667  0.98485760    -0.28200
C188        C  0.24077720  0.43198615  0.97592167    -0.03500
C189        C  0.24091211  0.44241486  0.99833214     0.05100
C190        C  0.23983997  0.43208101  0.02068616     0.03200
H191        H  0.24110601  0.43534712  0.95460386     0.08300
H192        H  0.23930954  0.43544056  0.04198810     0.07200
N193        N  0.73538601  0.87420372  0.44359442    -0.27200
N194        N  0.72938790  0.86219014  0.45840754    -0.35100
C195        C  0.72898850  0.84847310  0.44356379     0.01100
C196        C  0.73506347  0.85180470  0.41785584     0.07100
C197        C  0.73889536  0.86835736  0.41849601    -0.06000
H198        H  0.72491989  0.83684130  0.45139825     0.07800
H199        H  0.74439994  0.87545630  0.40235362     0.09000
Cu200      Cu  0.72464934  0.86367952  0.49936729     0.44200
Cu201      Cu  0.73946286  0.89722407  0.46062729     0.42000
Cu202      Cu  0.74005760  0.89697797  0.53691502     0.43900
N203        N  0.72841485  0.86257824  0.54063325    -0.34600
N204        N  0.73482172  0.87453963  0.55508956    -0.28900
C205        C  0.73788624  0.86895165  0.58050181    -0.05000
C206        C  0.73334259  0.85259830  0.58170897     0.07300
C207        C  0.72728977  0.84913334  0.55602308     0.01100
H208        H  0.74373293  0.87598974  0.59639372     0.08700
H209        H  0.72296000  0.83750934  0.54851758     0.07800
N210        N  0.74260162  0.91768631  0.51235878    -0.36100
N211        N  0.74218419  0.91787832  0.48533945    -0.28200
C212        C  0.74337212  0.93346072  0.47674548    -0.03500
C213        C  0.74464023  0.94364436  0.49933615     0.05100
C214        C  0.74412234  0.93310161  0.52149864     0.03200
H215        H  0.74320951  0.93704901  0.45552313     0.08300
H216        H  0.74436930  0.93634941  0.54287516     0.07200
N217        N  0.72933624  0.13731239  0.45261608    -0.27200
N218        N  0.72123813  0.14803135  0.46758942    -0.35100
C219        C  0.71943495  0.16196097  0.45357329     0.01100
C220        C  0.72680130  0.16016767  0.42833501     0.07100
C221        C  0.73287304  0.14425795  0.42835055    -0.06000
H222        H  0.71371192  0.17281068  0.46181460     0.07800
H223        H  0.73999539  0.13843530  0.41248095     0.09000
Cu224      Cu  0.71585324  0.14511526  0.50829277     0.44200
Cu225      Cu  0.73598984  0.11444266  0.46810350     0.42000
Cu226      Cu  0.73513980  0.11271785  0.54360457     0.43900
N227        N  0.71933955  0.14551864  0.54985247    -0.34600
N228        N  0.72745966  0.13408485  0.56315870    -0.28900
C229        C  0.72996288  0.13923789  0.58897508    -0.05000
C230        C  0.72295575  0.15464768  0.59194005     0.07300
C231        C  0.71634803  0.15813738  0.56661815     0.01100
H232        H  0.73671200  0.13245202  0.60419400     0.08700
H233        H  0.71074002  0.16948369  0.56021644     0.07800
N234        N  0.73942787  0.09268369  0.51806882    -0.36100
N235        N  0.73963401  0.09319910  0.49106499    -0.28200
C236        C  0.74170956  0.07791066  0.48139082    -0.03500
C237        C  0.74290014  0.06718910  0.50327204     0.05100
C238        C  0.74140783  0.07710027  0.52615255     0.03200
H239        H  0.74210646  0.07485705  0.45993042     0.08300
H240        H  0.74120504  0.07325731  0.54725090     0.07200
N241        N  0.85639421  0.74772539  0.44413103    -0.27200
N242        N  0.84450401  0.74092132  0.45829903    -0.35100
C243        C  0.83135195  0.73903942  0.44232304     0.01100
C244        C  0.83494256  0.74499894  0.41665819     0.07100
C245        C  0.85095051  0.75050678  0.41854144    -0.06000
H246        H  0.81979218  0.73423436  0.44927272     0.07800
H247        H  0.85810534  0.75606353  0.40251462     0.09000
Cu248      Cu  0.84558669  0.73630063  0.49951428     0.44200
Cu249      Cu  0.87929066  0.75252221  0.46150825     0.42000
Cu250      Cu  0.87967985  0.75113915  0.53682851     0.43900
N251        N  0.84550921  0.73865086  0.54129104    -0.34600
N252        N  0.85762207  0.74510645  0.55534659    -0.28900
C253        C  0.85271631  0.74719456  0.58139140    -0.05000
C254        C  0.83677018  0.74163919  0.58366960     0.07300
C255        C  0.83269353  0.73629203  0.55780765     0.01100
H256        H  0.86006266  0.75266613  0.59726677     0.08700
H257        H  0.82090301  0.73200371  0.55099555     0.07800
N258        N  0.90041974  0.75365768  0.51253270    -0.36100
N259        N  0.90045214  0.75407677  0.48553766    -0.28200
C260        C  0.91606326  0.75461395  0.47680950    -0.03500
C261        C  0.92643443  0.75447942  0.49932821     0.05100
C262        C  0.91591570  0.75392121  0.52155914     0.03200
H263        H  0.91954629  0.75463463  0.45553346     0.08300
H264        H  0.91917335  0.75331572  0.54290045     0.07200
N265        N  0.12008278  0.76115633  0.55433144    -0.27200
N266        N  0.13230291  0.76651123  0.53929221    -0.35100
C267        C  0.14578083  0.76774810  0.55461146     0.01100
C268        C  0.14207688  0.76301068  0.58093946     0.07100
C269        C  0.12555789  0.75900558  0.58013037    -0.06000
H270        H  0.15754128  0.77151009  0.54685547     0.07800
H271        H  0.11827966  0.75427750  0.59674044     0.09000
Cu272      Cu  0.13101985  0.76984068  0.49789221     0.44200
Cu273      Cu  0.09730317  0.75633294  0.53633316     0.42000
Cu274      Cu  0.09682769  0.75576744  0.45974309     0.43900
N275        N  0.13167166  0.76648644  0.45645983    -0.34600
N276        N  0.11945133  0.76075554  0.44179991    -0.28900
C277        C  0.12479042  0.75830257  0.41603148    -0.05000
C278        C  0.14121422  0.76254346  0.41479911     0.07300
C279        C  0.14500840  0.76776101  0.44083930     0.01100
H280        H  0.11749167  0.75316764  0.39978454     0.08700
H281        H  0.15675393  0.77176053  0.44830364     0.07800
N282        N  0.07622329  0.75331304  0.48474112    -0.36100
N283        N  0.07641271  0.75353040  0.51178172    -0.28200
C284        C  0.06093722  0.75256120  0.52090966    -0.03500
C285        C  0.05035087  0.75174871  0.49874942     0.05100
C286        C  0.06062409  0.75221197  0.47617137     0.03200
H287        H  0.05768800  0.75292481  0.54227672     0.08300
H288        H  0.05707825  0.75212352  0.45492587     0.07200
C289        C  0.72588264  0.75558831  0.76836855     0.02400
C290        C  0.73634322  0.74176633  0.76817797     0.02300
C291        C  0.74830411  0.74052546  0.74771235    -0.18200
C292        C  0.75037782  0.75293030  0.72818757     0.02400
C293        C  0.73996678  0.76676288  0.72858677     0.02300
C294        C  0.72785524  0.76783037  0.74866642    -0.18200
H295        H  0.71961127  0.77822358  0.74869733     0.04400
H296        H  0.75658210  0.73016599  0.74768455     0.04400
C297        C  0.73513539  0.74222724  0.22959814     0.02400
C298        C  0.72463801  0.75601138  0.22980366     0.02300
C299        C  0.72652247  0.76789096  0.25014210    -0.18200
C300        C  0.73863344  0.76648630  0.27019028     0.02400
C301        C  0.74913989  0.75273234  0.27008531     0.02300
C302        C  0.74706972  0.74063701  0.25006916    -0.18200
H303        H  0.75538715  0.73031172  0.24959339     0.04400
H304        H  0.71832354  0.77831755  0.25052576     0.04400
N305        N  0.24102315  0.87438469  0.43983962    -0.27200
N306        N  0.24698736  0.86205528  0.45405663    -0.35100
C307        C  0.24938919  0.84918552  0.43762706     0.01100
C308        C  0.24468578  0.85341704  0.41149881     0.07100
C309        C  0.23933022  0.86953504  0.41363391    -0.06000
H310        H  0.25367834  0.83738511  0.44454380     0.07800
H311        H  0.23459095  0.87713965  0.39741200     0.09000
Cu312      Cu  0.25004139  0.86237492  0.49559663     0.44200
Cu313      Cu  0.23601404  0.89681332  0.45869790     0.42000
Cu314      Cu  0.23667950  0.89594705  0.53537488     0.43900
N315        N  0.24817799  0.86126679  0.53729002    -0.34600
N316        N  0.24243243  0.87322044  0.55265274    -0.28900
C317        C  0.24146595  0.86779956  0.57865304    -0.05000
C318        C  0.24706546  0.85171399  0.57940130     0.07300
C319        C  0.25116218  0.84810333  0.55273216     0.01100
H320        H  0.23704788  0.87498563  0.59566807     0.08700
H321        H  0.25540501  0.83650954  0.54480199     0.07800
N322        N  0.23462099  0.91702274  0.51122033    -0.36100
N323        N  0.23453688  0.91735512  0.48417561    -0.28200
C324        C  0.23424000  0.93304493  0.47586088    -0.03500
C325        C  0.23410636  0.94317778  0.49860943     0.05100
C326        C  0.23430421  0.93248872  0.52061273     0.03200
H327        H  0.23431118  0.93674782  0.45469059     0.08300
H328        H  0.23474641  0.93566834  0.54201421     0.07200
N329        N  0.24401705  0.13632232  0.44356311    -0.27200
N330        N  0.25024139  0.14840926  0.45797771    -0.35100
C331        C  0.25077026  0.16195926  0.44275387     0.01100
C332        C  0.24458417  0.15840966  0.41721476     0.07100
C333        C  0.24050788  0.14193814  0.41833722    -0.06000
H334        H  0.25510496  0.17362227  0.45010120     0.07800
H335        H  0.23491842  0.13474019  0.40238491     0.09000
Cu336      Cu  0.25558204  0.14705991  0.49872149     0.44200
Cu337      Cu  0.24002367  0.11343247  0.46109182     0.42000
Cu338      Cu  0.24042394  0.11365979  0.53699209     0.43900
N339        N  0.25311548  0.14771558  0.54026874    -0.34600
N340        N  0.24651798  0.13590003  0.55481637    -0.28900
C341        C  0.24471832  0.14116507  0.58073725    -0.05000
C342        C  0.25064100  0.15701411  0.58231326     0.07300
C343        C  0.25582615  0.16068773  0.55623741     0.01100
H344        H  0.23941596  0.13406419  0.59706936     0.08700
H345        H  0.26046315  0.17225222  0.54897643     0.07800
N346        N  0.23811645  0.09285297  0.51277284    -0.36100
N347        N  0.23816910  0.09268183  0.48575420    -0.28200
C348        C  0.23744079  0.07706878  0.47715799    -0.03500
C349        C  0.23688607  0.06685423  0.49976067     0.05100
C350        C  0.23731069  0.07739478  0.52194182     0.03200
H351        H  0.23741379  0.07347884  0.45592501     0.08300
H352        H  0.23749391  0.07412263  0.54330491     0.07200
C353        C  0.23860917  0.74295455  0.76894695     0.02400
C354        C  0.25308065  0.75239280  0.76742666     0.02300
C355        C  0.25470157  0.76395158  0.74638972    -0.18200
C356        C  0.24217414  0.76657451  0.72731013     0.02400
C357        C  0.22768814  0.75726450  0.72897390     0.02300
C358        C  0.22605794  0.74569641  0.74990750    -0.18200
H359        H  0.21512349  0.73829307  0.75076139     0.04400
H360        H  0.26560428  0.77139177  0.74537111     0.04400
C361        C  0.25010990  0.75355944  0.22521610     0.02400
C362        C  0.23669749  0.74265819  0.22498334     0.02300
C363        C  0.22434871  0.74444233  0.24461772    -0.18200
C364        C  0.22521872  0.75658292  0.26483361     0.02400
C365        C  0.23868941  0.76735782  0.26517562     0.02300
C366        C  0.25101381  0.76562564  0.24553324    -0.18200
H367        H  0.26110855  0.77415199  0.24548308     0.04400
H368        H  0.21419277  0.73598973  0.24463741     0.04400
N369        N  0.86039968  0.25654973  0.45204435    -0.27200
N370        N  0.84930525  0.26402313  0.46710788    -0.35100
C371        C  0.83640435  0.26791043  0.45160304     0.01100
C372        C  0.83932564  0.26257520  0.42528734     0.07100
C373        C  0.85469947  0.25533289  0.42626398    -0.06000
H374        H  0.82529206  0.27337739  0.45935523     0.07800
H375        H  0.86113332  0.24945766  0.40964275     0.09000
Cu376      Cu  0.85064813  0.26582048  0.50888403     0.44200
Cu377      Cu  0.88215943  0.24842760  0.46958307     0.42000
Cu378      Cu  0.88166458  0.24543534  0.54613218     0.43900
N379        N  0.84831105  0.25994370  0.54946193    -0.34600
N380        N  0.85922939  0.25170134  0.56372799    -0.28900
C381        C  0.85263942  0.24794564  0.58824752    -0.05000
C382        C  0.83672598  0.25398488  0.58897947     0.07300
C383        C  0.83461337  0.26161014  0.56406778     0.01100
H384        H  0.85863948  0.24068175  0.60373116     0.08700
H385        H  0.82365547  0.26742927  0.55647078     0.07800
N386        N  0.90236906  0.24314784  0.52131214    -0.36100
N387        N  0.90250571  0.24424716  0.49433709    -0.28200
C388        C  0.91804357  0.24338158  0.48553997    -0.03500
C389        C  0.92831261  0.24167850  0.50789331     0.05100
C390        C  0.91783961  0.24151976  0.53019284     0.03200
H391        H  0.92152987  0.24427620  0.46431988     0.08300
H392        H  0.92117793  0.24085815  0.55150207     0.07200
N393        N  0.11851717  0.25140055  0.44272653    -0.27200
N394        N  0.13045861  0.25876833  0.45593867    -0.35100
C395        C  0.14245144  0.26242795  0.43838683     0.01100
C396        C  0.13804658  0.25692073  0.41280362     0.07100
C397        C  0.12279079  0.24989390  0.41624881    -0.06000
H398        H  0.15399526  0.26778971  0.44418123     0.07800
H399        H  0.11547267  0.24396594  0.40079996     0.09000
Cu400      Cu  0.13145463  0.26096526  0.49778464     0.44200
Cu401      Cu  0.09731460  0.24406965  0.46267676     0.42000
Cu402      Cu  0.09878576  0.24617105  0.53844294     0.43900
N403        N  0.13337993  0.25749690  0.53930888    -0.34600
N404        N  0.12149902  0.25181529  0.55476491    -0.28900
C405        C  0.12720459  0.24976156  0.58035115    -0.05000
C406        C  0.14356137  0.25419553  0.58077966     0.07300
C407        C  0.14693835  0.25910225  0.55434649     0.01100
H408        H  0.12016894  0.24477394  0.59703665     0.08700
H409        H  0.15849822  0.26321657  0.54629175     0.07800
N410        N  0.07778809  0.24236392  0.51544474    -0.36100
N411        N  0.07723568  0.24153328  0.48848056    -0.28200
C412        C  0.06156436  0.24014069  0.48062987    -0.03500
C413        C  0.05171306  0.24010248  0.50367990     0.05100
C414        C  0.06251038  0.24146995  0.52534026     0.03200
H415        H  0.05767612  0.23957221  0.45957138     0.08300
H416        H  0.05950804  0.24242700  0.54677120     0.07200
C417        C  0.73805282  0.26834026  0.77217215     0.02400
C418        C  0.72415593  0.25807175  0.77248659     0.02300
C419        C  0.72244874  0.24603937  0.75228776    -0.18200
C420        C  0.73456027  0.24349376  0.73246648     0.02400
C421        C  0.74854740  0.25362256  0.73222548     0.02300
C422        C  0.75005509  0.26593897  0.75204574    -0.18200
H423        H  0.76061045  0.27388201  0.75162404     0.04400
H424        H  0.71202876  0.23792076  0.75294549     0.04400
C425        C  0.72609923  0.25854942  0.24315880     0.02400
C426        C  0.73749458  0.27149623  0.24312176     0.02300
C427        C  0.74935884  0.27210379  0.26378093    -0.18200
C428        C  0.75030713  0.25998203  0.28402580     0.02400
C429        C  0.73893585  0.24701380  0.28388919     0.02300
C430        C  0.72705228  0.24642427  0.26330876    -0.18200
H431        H  0.71811718  0.23668326  0.26343759     0.04400
H432        H  0.75830903  0.28182631  0.26359765     0.04400
C433        C  0.25360878  0.25618479  0.76895832     0.02400
C434        C  0.24001694  0.26685009  0.76885054     0.02300
C435        C  0.22779567  0.26495775  0.74907883    -0.18200
C436        C  0.22882924  0.25272072  0.72909854     0.02400
C437        C  0.24258134  0.24218496  0.72900585     0.02300
C438        C  0.25484764  0.24415014  0.74872142    -0.18200
H439        H  0.26514410  0.23579050  0.74894678     0.04400
H440        H  0.21747245  0.27328105  0.74906246     0.04400
C441        C  0.23770324  0.26835758  0.22944889     0.02400
C442        C  0.25038487  0.25656684  0.22910010     0.02300
C443        C  0.25042131  0.24417305  0.24895053    -0.18200
C444        C  0.23809329  0.24322680  0.26887485     0.02400
C445        C  0.22537051  0.25498895  0.26891913     0.02300
C446        C  0.22544310  0.26739818  0.24929066    -0.18200
H447        H  0.21569225  0.27639282  0.24926820     0.04400
H448        H  0.26008115  0.23509342  0.24878324     0.04400
C449        C  0.15539723  0.25293655  0.60360105    -0.01200
C450        C  0.15021165  0.25275644  0.63084195    -0.09200
C451        C  0.16156136  0.25206994  0.65219460    -0.18100
C452        C  0.17855099  0.25148020  0.64686976     0.04300
C453        C  0.18364810  0.25132283  0.61914618     0.18500
C454        C  0.17214956  0.25201962  0.59802877    -0.19500
C455        C  0.20023793  0.25064756  0.61250633    -0.20800
C456        C  0.21200137  0.25057233  0.63283761    -0.19300
C457        C  0.20746919  0.25106683  0.66031985     0.19900
C458        C  0.19069797  0.25125880  0.66786424     0.02000
C459        C  0.18691393  0.25145950  0.69604026    -0.14000
C460        C  0.19927405  0.25168067  0.71572569    -0.11800
C461        C  0.21575404  0.25176037  0.70806704     0.01600
C462        C  0.21970456  0.25158416  0.68028497    -0.23900
H463        H  0.13734130  0.25344695  0.63572711     0.09600
H464        H  0.15667626  0.25217826  0.67260571     0.13100
H465        H  0.17636385  0.25178229  0.57708663     0.11800
H466        H  0.20416406  0.25039978  0.59138767     0.13000
H467        H  0.22475959  0.25025020  0.62700471     0.12100
H468        H  0.17454570  0.25149022  0.70349942     0.09200
H469        H  0.19593935  0.25182238  0.73711726     0.12400
H470        H  0.23239078  0.25214242  0.67412845     0.14300
C471        C  0.14865096  0.25696182  0.38843935    -0.01200
C472        C  0.14978049  0.24323418  0.37153216    -0.09200
C473        C  0.16158844  0.24242890  0.35091661    -0.18100
C474        C  0.17252838  0.25551929  0.34644969     0.04300
C475        C  0.17059149  0.26978650  0.36273010     0.18500
C476        C  0.15886068  0.27030631  0.38356028    -0.19500
C477        C  0.18061935  0.28334866  0.35860401    -0.20800
C478        C  0.19287057  0.28294575  0.33905479    -0.19300
C479        C  0.19554112  0.26889989  0.32340539     0.19900
C480        C  0.18542165  0.25495811  0.32675187     0.02000
C481        C  0.18889549  0.24102169  0.31059781    -0.14000
C482        C  0.20185349  0.24098952  0.29199737    -0.11800
C483        C  0.21175138  0.25476938  0.28894771     0.01600
C484        C  0.20843332  0.26869738  0.30458233    -0.23900
H485        H  0.14198165  0.23278745  0.37502863     0.09600
H486        H  0.16198032  0.23135082  0.33906400     0.13100
H487        H  0.15785329  0.28105008  0.39641355     0.11800
H488        H  0.17907669  0.29430211  0.37077209     0.13000
H489        H  0.20050152  0.29362399  0.33647602     0.12100
H490        H  0.18191068  0.22993084  0.31201288     0.09200
H491        H  0.20412122  0.23017189  0.27982228     0.12400
H492        H  0.21610930  0.27937816  0.30228236     0.14300
C493        C  0.94651229  0.24109010  0.50803566    -0.01200
C494        C  0.95508720  0.23728005  0.53198293    -0.09200
C495        C  0.97214757  0.23686726  0.53235122    -0.18100
C496        C  0.98134718  0.24026639  0.50860869     0.04300
C497        C  0.97263649  0.24408919  0.48434816     0.18500
C498        C  0.95547591  0.24447576  0.48428212    -0.19500
C499        C  0.98109085  0.24752173  0.46021069    -0.20800
C500        C  0.99804352  0.24718127  0.45957056    -0.19300
C501        C  0.00700768  0.24346482  0.48306797     0.19900
C502        C  0.99882292  0.24000557  0.50798688     0.02000
C503        C  0.00852125  0.23648542  0.53112868    -0.14000
C504        C  0.02555072  0.23643959  0.52957025    -0.11800
C505        C  0.03357709  0.23983592  0.50495987     0.01600
C506        C  0.02414875  0.24328257  0.48176453    -0.23900
H507        H  0.94863813  0.23448421  0.55065223     0.09600
H508        H  0.97776114  0.23379628  0.55156465     0.13100
H509        H  0.94915859  0.24756478  0.46558600     0.11800
H510        H  0.97453671  0.25046270  0.44164240     0.13000
H511        H  0.00419689  0.24987245  0.44051461     0.12100
H512        H  0.00332705  0.23374905  0.55080524     0.09200
H513        H  0.03242720  0.23360709  0.54781226     0.12400
H514        H  0.03011619  0.24611569  0.46262096     0.14300
C515        C  0.76363781  0.26093554  0.30440755    -0.01200
C516        C  0.76503366  0.27469989  0.32111077    -0.09200
C517        C  0.77764485  0.27590629  0.34013127    -0.19700
C518        C  0.78945458  0.26334699  0.34284081     0.04300
C519        C  0.78824659  0.24961592  0.32517259     0.18500
C520        C  0.77531141  0.24845427  0.30641799    -0.19500
C521        C  0.79998249  0.23716734  0.32627911    -0.20800
C522        C  0.81282062  0.23793307  0.34482400    -0.19300
C523        C  0.81406900  0.25100154  0.36313861     0.19900
C524        C  0.80236012  0.26388074  0.36246062     0.02000
C525        C  0.80384700  0.27652794  0.38192584    -0.14000
C526        C  0.81612815  0.27617777  0.40158648    -0.11800
C527        C  0.82753576  0.26341577  0.40240823     0.01600
C528        C  0.82667542  0.25103106  0.38270226    -0.23900
H529        H  0.75621205  0.28454043  0.31953696     0.09600
H530        H  0.77787713  0.28690154  0.35220459     0.13100
H531        H  0.77441344  0.23792843  0.29305579     0.11800
H532        H  0.79921970  0.22674034  0.31270305     0.13000
H533        H  0.82166483  0.22806494  0.34519563     0.12100
H534        H  0.79545894  0.28666326  0.38302387     0.09200
H535        H  0.81659801  0.28595065  0.41646907     0.12400
H536        H  0.83534213  0.24100656  0.38338986     0.14300
C537        C  0.76132011  0.25216448  0.71076012    -0.01200
C538        C  0.75696947  0.25295190  0.68320842    -0.09200
C539        C  0.76880693  0.25211026  0.66280078    -0.18100
C540        C  0.78558029  0.25059270  0.66930330     0.04300
C541        C  0.78996151  0.24968328  0.69732506     0.18500
C542        C  0.77785724  0.25050473  0.71770975    -0.19500
C543        C  0.80640306  0.24818154  0.70479500    -0.20800
C544        C  0.81865152  0.24796960  0.68505032    -0.19300
C545        C  0.81478735  0.24924594  0.65729340     0.19900
C546        C  0.79815663  0.25033483  0.64905227     0.02000
C547        C  0.79482819  0.25140856  0.62086130    -0.14000
C548        C  0.80740082  0.25215385  0.60182795    -0.11800
C549        C  0.82380124  0.25174037  0.60991238     0.01600
C550        C  0.82743555  0.24982161  0.63771292    -0.23900
H551        H  0.74430012  0.25447744  0.67741478     0.09600
H552        H  0.76438827  0.25291666  0.64216577     0.13100
H553        H  0.78128030  0.24988947  0.73905717     0.11800
H554        H  0.80983768  0.24737971  0.72610817     0.13000
H555        H  0.83125358  0.24703167  0.69156983     0.12100
H556        H  0.78263526  0.25188139  0.61274533     0.09200
H557        H  0.80414162  0.25308871  0.58048670     0.12400
H558        H  0.84007176  0.24937133  0.64419956     0.14300
C559        C  0.24244363  0.17015951  0.39449659    -0.01200
C560        C  0.24188929  0.16491039  0.36732639    -0.09200
C561        C  0.24101346  0.17623252  0.34597117    -0.18100
C562        C  0.24056818  0.19324573  0.35124654     0.04300
C563        C  0.24048668  0.19840182  0.37894253     0.18500
C564        C  0.24144283  0.18692955  0.40006862    -0.19500
C565        C  0.23958556  0.21500997  0.38551776    -0.20800
C566        C  0.23892089  0.22672419  0.36512361    -0.19300
C567        C  0.23930460  0.22212978  0.33766034     0.19900
C568        C  0.24019215  0.20534443  0.33020758     0.02000
C569        C  0.24085199  0.20149291  0.30206529    -0.14000
C570        C  0.24032602  0.21378450  0.28228951    -0.11800
C571        C  0.23909339  0.23022741  0.28988227     0.01600
C572        C  0.23884259  0.23430359  0.31759289    -0.23900
H573        H  0.24254268  0.15201910  0.36249295     0.09600
H574        H  0.24076669  0.17130097  0.32558535     0.13100
H575        H  0.24139520  0.19116363  0.42101805     0.11800
H576        H  0.23943142  0.21898050  0.40662178     0.13000
H577        H  0.23821280  0.23949322  0.37088608     0.12100
H578        H  0.24181270  0.18912241  0.29470133     0.09200
H579        H  0.24066487  0.21042732  0.26091101     0.12400
H580        H  0.23827762  0.24705915  0.32352547     0.14300
C581        C  0.24454645  0.22901655  0.70864848    -0.01200
C582        C  0.25771561  0.22951313  0.69061518    -0.09200
C583        C  0.25952097  0.21766652  0.67045958    -0.18100
C584        C  0.24822272  0.20472627  0.66793524     0.04300
C585        C  0.23505077  0.20407741  0.68681374     0.18500
C586        C  0.23328417  0.21624085  0.70685672    -0.19500
C587        C  0.22371673  0.19135127  0.68545884    -0.20800
C588        C  0.22508591  0.17928663  0.66556568    -0.19300
C589        C  0.23773083  0.17974379  0.64636833     0.19900
C590        C  0.24948362  0.19248629  0.64729605     0.02000
C591        C  0.26186973  0.19255907  0.62724688    -0.14000
C592        C  0.26232888  0.18077352  0.60681958    -0.11800
C593        C  0.25062666  0.16839393  0.60569853     0.01600
C594        C  0.23851864  0.16773152  0.62584850    -0.23900
H595        H  0.26648759  0.23935599  0.69182469     0.09600
H596        H  0.26992316  0.21903618  0.65721688     0.13100
H597        H  0.22313440  0.21584126  0.72105879     0.11800
H598        H  0.21368920  0.19074797  0.69985188     0.13000
H599        H  0.21607758  0.16963357  0.66499376     0.12100
H600        H  0.27127647  0.20170402  0.62641316     0.09200
H601        H  0.27192278  0.18142661  0.59166156     0.12400
H602        H  0.22933297  0.15824839  0.62495197     0.14300
C603        C  0.23436884  0.96141381  0.49940153    -0.01200
C604        C  0.23063420  0.96980763  0.52358459    -0.09200
C605        C  0.23093085  0.98687280  0.52471118    -0.18100
C606        C  0.23504523  0.99629250  0.50154207     0.04300
C607        C  0.23887903  0.98778291  0.47704234     0.18500
C608        C  0.23847068  0.97058053  0.47617196    -0.19500
C609        C  0.24311858  0.99649239  0.45351892    -0.20800
C610        C  0.24353091  0.01348012  0.45370105    -0.19300
C611        C  0.23971182  0.02224599  0.47741242     0.19900
C612        C  0.23547053  0.01380003  0.50173254     0.02000
C613        C  0.23181917  0.02327842  0.52511205    -0.14000
C614        C  0.23230413  0.04033829  0.52431902    -0.11800
C615        C  0.23640681  0.04865423  0.50028178     0.01600
C616        C  0.24011193  0.03944040  0.47688772    -0.23900
H617        H  0.22728779  0.96319455  0.54183459     0.09600
H618        H  0.22784459  0.99231642  0.54407046     0.13100
H619        H  0.24154837  0.96435701  0.45733958     0.11800
H620        H  0.24610886  0.99011155  0.43477527     0.13000
H621        H  0.24682554  0.01981488  0.43510001     0.12100
H622        H  0.22849594  0.01788879  0.54436600     0.09200
H623        H  0.22925633  0.04700774  0.54270208     0.12400
H624        H  0.24347677  0.04560710  0.45818521     0.14300
C625        C  0.24418065  0.77957919  0.70652688    -0.01200
C626        C  0.25680494  0.77868330  0.68737861    -0.09200
C627        C  0.25827506  0.79051107  0.66696673    -0.18100
C628        C  0.24717207  0.80378338  0.66532325     0.04300
C629        C  0.23474291  0.80488029  0.68550594     0.18500
C630        C  0.23329851  0.79278238  0.70566052    -0.19500
C631        C  0.22376967  0.81801100  0.68541611    -0.20800
C632        C  0.22474839  0.83007934  0.66554484    -0.19300
C633        C  0.23653364  0.82917533  0.64492701     0.19900
C634        C  0.24787741  0.81596298  0.64441637     0.02000
C635        C  0.25919215  0.81536251  0.62267290    -0.14000
C636        C  0.25904292  0.82717954  0.60216569    -0.11800
C637        C  0.24781124  0.84013547  0.60265675     0.01600
C638        C  0.23677206  0.84121820  0.62441450    -0.23900
H639        H  0.26537847  0.76858562  0.68791380     0.09600
H640        H  0.26824046  0.78894105  0.65286125     0.13100
H641        H  0.22365243  0.79358522  0.72076520     0.11800
H642        H  0.21433357  0.81895386  0.70084467     0.13000
H643        H  0.21604186  0.84006619  0.66606042     0.12100
H644        H  0.26809528  0.80573505  0.62058323     0.09200
H645        H  0.26779943  0.82610101  0.58570475     0.12400
H646        H  0.22791079  0.85107394  0.62481271     0.14300
C647        C  0.24466158  0.84237245  0.38746988    -0.01200
C648        C  0.23344515  0.84446290  0.36621426    -0.09200
C649        C  0.23242512  0.83301507  0.34503123    -0.18100
C650        C  0.24275528  0.81910564  0.34438638     0.04300
C651        C  0.25472720  0.81758951  0.36520901     0.18500
C652        C  0.25547139  0.82905738  0.38647363    -0.19500
C653        C  0.26578393  0.80451991  0.36493302    -0.20800
C654        C  0.26510615  0.79274240  0.34454210    -0.19300
C655        C  0.25309821  0.79351030  0.32430159     0.19900
C656        C  0.24162612  0.80661140  0.32402205     0.02000
C657        C  0.22928864  0.80636118  0.30381670    -0.14000
C658        C  0.22840115  0.79363834  0.28483414    -0.11800
C659        C  0.23986000  0.78094219  0.28509620     0.01600
C660        C  0.25230275  0.78104510  0.30462210    -0.23900
H661        H  0.22505589  0.85470889  0.36638085     0.09600
H662        H  0.22341059  0.83535668  0.32951378     0.13100
H663        H  0.26450221  0.82753385  0.40242837     0.11800
H664        H  0.27501774  0.80337674  0.38065227     0.13000
H665        H  0.27384499  0.78277846  0.34492130     0.12100
H666        H  0.21995260  0.81562043  0.30252838     0.09200
H667        H  0.21869157  0.79367825  0.26983534     0.12400
H668        H  0.26108566  0.77110775  0.30493212     0.14300
C669        C  0.15284013  0.76085620  0.39175710    -0.01200
C670        C  0.14750313  0.76124164  0.36464177    -0.09200
C671        C  0.15870507  0.76036704  0.34308794    -0.18100
C672        C  0.17568706  0.75895195  0.34807903     0.04300
C673        C  0.18093579  0.75820594  0.37568627     0.18500
C674        C  0.16958158  0.75915291  0.39702069    -0.19500
C675        C  0.19752227  0.75662549  0.38197239    -0.20800
C676        C  0.20912754  0.75592880  0.36138385    -0.19300
C677        C  0.20444089  0.75680355  0.33400140     0.19900
C678        C  0.18766621  0.75828983  0.32683955     0.02000
C679        C  0.18369729  0.75908448  0.29876254    -0.14000
C680        C  0.19587397  0.75852896  0.27878647    -0.11800
C681        C  0.21233304  0.75723353  0.28609173     0.01600
C682        C  0.21649917  0.75619559  0.31371543    -0.23900
H683        H  0.13464148  0.76255758  0.36004559     0.09600
H684        H  0.15370317  0.76091774  0.32277983     0.13100
H685        H  0.17388029  0.75846792  0.41789031     0.11800
H686        H  0.20156460  0.75600217  0.40300278     0.13000
H687        H  0.22188734  0.75477634  0.36693530     0.12100
H688        H  0.17131396  0.76019048  0.29158478     0.09200
H689        H  0.19244068  0.75926003  0.25747937     0.12400
H690        H  0.22921883  0.75480926  0.31941083     0.14300
C691        C  0.15387366  0.76169145  0.60388197    -0.01200
C692        C  0.14897272  0.76382604  0.63102980    -0.09200
C693        C  0.16044110  0.76344406  0.65229302    -0.18100
C694        C  0.17724093  0.76067010  0.64701279     0.04300
C695        C  0.18200632  0.75810698  0.61944011     0.18500
C696        C  0.17042087  0.75872347  0.59837861    -0.19500
C697        C  0.19833947  0.75493947  0.61290885    -0.20800
C698        C  0.21014448  0.75425505  0.63318167    -0.19300
C699        C  0.20595903  0.75684323  0.66050406     0.19900
C700        C  0.18948295  0.76019743  0.66792302     0.02000
C701        C  0.18607073  0.76286742  0.69591013    -0.14000
C702        C  0.19844587  0.76198154  0.71558513    -0.11800
C703        C  0.21458804  0.75857190  0.70804335     0.01600
C704        C  0.21821874  0.75599428  0.68046761    -0.23900
H705        H  0.13627206  0.76615958  0.63580192     0.09600
H706        H  0.15579873  0.76534208  0.67262920     0.13100
H707        H  0.17434968  0.75672778  0.57751891     0.11800
H708        H  0.20201787  0.75292946  0.59192405     0.13000
H709        H  0.22267336  0.75171176  0.62741978     0.12100
H710        H  0.17396898  0.76565872  0.70320752     0.09200
H711        H  0.19542221  0.76404917  0.73682940     0.12400
H712        H  0.23066760  0.75313514  0.67458303     0.14300
C713        C  0.94471287  0.75407355  0.49979160    -0.01200
C714        C  0.95316504  0.75272612  0.52462096    -0.09200
C715        C  0.97021434  0.75207518  0.52542742    -0.18100
C716        C  0.97962520  0.75276373  0.50127356     0.04300
C717        C  0.97111095  0.75423745  0.47611209     0.18500
C718        C  0.95389811  0.75485969  0.47558202    -0.19500
C719        C  0.97983938  0.75509148  0.45158001    -0.20800
C720        C  0.99683139  0.75457432  0.45147297    -0.19300
C721        C  0.00560669  0.75313541  0.47588831     0.19900
C722        C  0.99713460  0.75212617  0.50115015     0.02000
C723        C  0.00659104  0.75053788  0.52514211    -0.14000
C724        C  0.02365040  0.75023130  0.52414108    -0.11800
C725        C  0.03206352  0.75149214  0.49927956     0.01600
C726        C  0.02282780  0.75280046  0.47516509    -0.23900
H727        H  0.94665716  0.75209281  0.54377232     0.09600
H728        H  0.97565746  0.75105155  0.54536767     0.13100
H729        H  0.94771111  0.75597067  0.45615321     0.11800
H730        H  0.97347207  0.75621471  0.43228781     0.13000
H731        H  0.00316565  0.75532980  0.43209738     0.12100
H732        H  0.00117657  0.74951983  0.54510664     0.09200
H733        H  0.03021556  0.74901747  0.54316284     0.12400
H734        H  0.02898179  0.75375434  0.45568107     0.14300
C735        C  0.82552435  0.74279961  0.60722873    -0.01200
C736        C  0.82713544  0.75523961  0.62663432    -0.09200
C737        C  0.81548254  0.75725422  0.64725049    -0.18100
C738        C  0.80186599  0.74671018  0.64918825     0.04300
C739        C  0.80073902  0.73368755  0.63008516     0.18500
C740        C  0.81242348  0.73193379  0.60937579    -0.19500
C741        C  0.78786030  0.72255106  0.63151689    -0.20800
C742        C  0.77595206  0.72407785  0.65150963    -0.19300
C743        C  0.77647539  0.73693614  0.67027004     0.19900
C744        C  0.78933225  0.74856895  0.66928066     0.02000
C745        C  0.78890114  0.76164653  0.68818360    -0.14000
C746        C  0.77629545  0.76300239  0.70726656    -0.11800
C747        C  0.76385342  0.75136534  0.70824287     0.01600
C748        C  0.76406863  0.73831087  0.68987048    -0.23900
H749        H  0.83716033  0.76378794  0.62538971     0.09600
H750        H  0.81744346  0.76718856  0.66127567     0.13100
H751        H  0.81124957  0.72207868  0.59473365     0.11800
H752        H  0.78699046  0.71257091  0.61705776     0.13000
H753        H  0.76615135  0.71522900  0.65210901     0.12100
H754        H  0.79798570  0.77111876  0.68851034     0.09200
H755        H  0.77623907  0.77319428  0.72137997     0.12400
H756        H  0.75430643  0.72940658  0.69050199     0.14300
C757        C  0.82359074  0.74579082  0.39311841    -0.01200
C758        C  0.82480568  0.75826021  0.37372452    -0.09200
C759        C  0.81338243  0.75960621  0.35260679    -0.18100
C760        C  0.80042140  0.74830464  0.35002355     0.04300
C761        C  0.79970801  0.73525605  0.36908834     0.18500
C762        C  0.81107058  0.73425466  0.39048947    -0.19500
C763        C  0.78762044  0.72329321  0.36678218    -0.20800
C764        C  0.77606095  0.72408049  0.34606670    -0.19300
C765        C  0.77604388  0.73706215  0.32752852     0.19900
C766        C  0.78814910  0.74945048  0.32931884     0.02000
C767        C  0.78720585  0.76259827  0.31066806    -0.14000
C768        C  0.77474164  0.76342927  0.29127881    -0.11800
C769        C  0.76286724  0.75122012  0.28971055     0.01600
C770        C  0.76374738  0.73791896  0.30756310    -0.23900
H771        H  0.83438998  0.76728528  0.37527094     0.09600
H772        H  0.81505913  0.76958668  0.33859111     0.13100
H773        H  0.81021225  0.72435793  0.40508696     0.11800
H774        H  0.78710455  0.71323705  0.38111389     0.13000
H775        H  0.76687417  0.71461432  0.34485081     0.12100
H776        H  0.79570648  0.77260249  0.31090392     0.09200
H777        H  0.77425106  0.77378216  0.27755117     0.12400
H778        H  0.75448137  0.72851348  0.30647888     0.14300
C779        C  0.73269890  0.22953046  0.71340186    -0.01200
C780        C  0.74438297  0.21703593  0.71266709    -0.09200
C781        C  0.74270221  0.20385488  0.69476119    -0.18100
C782        C  0.72924633  0.20284993  0.67674137     0.04300
C783        C  0.71741794  0.21561411  0.67768351     0.18500
C784        C  0.71912194  0.22862326  0.69616856    -0.19500
C785        C  0.70412052  0.21550328  0.65979621    -0.20800
C786        C  0.70255082  0.20325767  0.64033842    -0.19300
C787        C  0.71405932  0.19062464  0.63864655     0.19900
C788        C  0.72731961  0.18993942  0.65730222     0.02000
C789        C  0.73814713  0.17647005  0.65536848    -0.14000
C790        C  0.73637643  0.16472050  0.63482836    -0.11800
C791        C  0.72383716  0.16600904  0.61553047     0.01600
C792        C  0.71251452  0.17881660  0.61801658    -0.23900
H793        H  0.75487691  0.21748752  0.72608206     0.09600
H794        H  0.75228112  0.19481325  0.69516542     0.13100
H795        H  0.71007347  0.23831946  0.69672993     0.11800
H796        H  0.69505024  0.22516458  0.66045239     0.13000
H797        H  0.69232067  0.20374763  0.62635012     0.12100
H798        H  0.74818488  0.17474556  0.66927413     0.09200
H799        H  0.74521125  0.15488932  0.63356219     0.12400
H800        H  0.70250211  0.17972374  0.60365189     0.14300
C801        C  0.73836437  0.23457953  0.30590845    -0.01200
C802        C  0.73569427  0.23936145  0.33294695    -0.09200
C803        C  0.73394719  0.22773169  0.35356762    -0.18100
C804        C  0.73486046  0.21080665  0.34773792     0.04300
C805        C  0.73796772  0.20605187  0.32030157     0.18500
C806        C  0.73951861  0.21790865  0.29971025    -0.19500
C807        C  0.73942196  0.18949209  0.31355573    -0.20800
C808        C  0.73783270  0.17749387  0.33346744    -0.19300
C809        C  0.73449050  0.18172273  0.36058494     0.19900
C810        C  0.73280839  0.19844260  0.36806637     0.02000
C811        C  0.72899060  0.20203840  0.39553016    -0.14000
C812        C  0.72706819  0.18962303  0.41470661    -0.11800
C813        C  0.72891262  0.17314491  0.40742273     0.01600
C814        C  0.73269761  0.16930492  0.38024727    -0.23900
H815        H  0.73462722  0.25219622  0.33805280     0.09600
H816        H  0.73188624  0.23240657  0.37382776     0.13100
H817        H  0.74161181  0.21419557  0.27874891     0.11800
H818        H  0.74185135  0.18578452  0.29270759     0.13000
H819        H  0.73909288  0.16479633  0.32755535     0.12100
H820        H  0.72729482  0.21432481  0.40287744     0.09200
H821        H  0.72431093  0.19309596  0.43550517     0.12400
H822        H  0.73399867  0.15662889  0.37424307     0.14300
C823        C  0.74561811  0.96183880  0.49996478    -0.01200
C824        C  0.74954879  0.97000324  0.52424968    -0.09200
C825        C  0.74998418  0.98704739  0.52545068    -0.18100
C826        C  0.74642144  0.99668640  0.50226100     0.04300
C827        C  0.74259963  0.98841659  0.47756268     0.18500
C828        C  0.74232623  0.97121593  0.47658915    -0.19500
C829        C  0.73883045  0.99736875  0.45404418    -0.20800
C830        C  0.73850997  0.01436404  0.45460768    -0.19300
C831        C  0.74205955  0.02289288  0.47865341     0.19900
C832        C  0.74625694  0.01419061  0.50276679     0.02000
C833        C  0.74994298  0.02341626  0.52636861    -0.14000
C834        C  0.74903451  0.04046284  0.52623626    -0.11800
C835        C  0.74450914  0.04903350  0.50264394     0.01600
C836        C  0.74125057  0.04009385  0.47878354    -0.23900
H837        H  0.75235103  0.96323724  0.54261349     0.09600
H838        H  0.75300856  0.99229303  0.54495966     0.13100
H839        H  0.73918871  0.96518799  0.45764247     0.11800
H840        H  0.73592838  0.99117495  0.43511648     0.13000
H841        H  0.73536126  0.02089016  0.43609877     0.12100
H842        H  0.75352017  0.01783628  0.54535749     0.09200
H843        H  0.75194737  0.04693009  0.54485603     0.12400
H844        H  0.73772996  0.04646692  0.46033075     0.14300
C845        C  0.73742888  0.83981619  0.39546019    -0.01200
C846        C  0.73914244  0.84489456  0.36834740    -0.09200
C847        C  0.74032455  0.83345328  0.34720411    -0.18100
C848        C  0.73980139  0.81646639  0.35258706     0.04300
C849        C  0.73856720  0.81142792  0.38023679     0.18500
C850        C  0.73751215  0.82302909  0.40119176    -0.19500
C851        C  0.73808336  0.79481919  0.38689630    -0.20800
C852        C  0.73836795  0.78301474  0.36657705    -0.19300
C853        C  0.73921554  0.78752830  0.33911964     0.19900
C854        C  0.74016697  0.80429840  0.33165127     0.02000
C855        C  0.74113330  0.80810551  0.30355051    -0.14000
C856        C  0.74083495  0.79581038  0.28380923    -0.11800
C857        C  0.73964799  0.77938144  0.29136483     0.01600
C858        C  0.73887146  0.77532719  0.31904533    -0.23900
H859        H  0.73918236  0.85776440  0.36332523     0.09600
H860        H  0.74139119  0.83830424  0.32685175     0.13100
H861        H  0.73663071  0.81884859  0.42209151     0.11800
H862        H  0.73722991  0.79092899  0.40798185     0.13000
H863        H  0.73775329  0.77025558  0.37237669     0.12100
H864        H  0.74201043  0.82045916  0.29614309     0.09200
H865        H  0.74151001  0.79913997  0.26245106     0.12400
H866        H  0.73770951  0.76261550  0.32493224     0.14300
C867        C  0.73569909  0.84069659  0.60420409    -0.01200
C868        C  0.73692441  0.84578361  0.63140763    -0.09200
C869        C  0.73845441  0.83433624  0.65250702    -0.18100
C870        C  0.73887268  0.81734687  0.64694178     0.04300
C871        C  0.73802822  0.81235286  0.61920691     0.18500
C872        C  0.73650669  0.82394560  0.59834938    -0.19500
C873        C  0.73850872  0.79577256  0.61231705    -0.20800
C874        C  0.73943014  0.78391922  0.63246179    -0.19300
C875        C  0.73995351  0.78834104  0.65999395     0.19900
C876        C  0.73988703  0.80510594  0.66773064     0.02000
C877        C  0.74056731  0.80879176  0.69591440    -0.14000
C878        C  0.74098396  0.79635894  0.71545498    -0.11800
C879        C  0.74077079  0.77988979  0.70764138     0.01600
C880        C  0.74026114  0.77601320  0.67984857    -0.23900
H881        H  0.73637074  0.85864667  0.63648214     0.09600
H882        H  0.73912793  0.83914943  0.67294175     0.13100
H883        H  0.73598687  0.81979906  0.57738359     0.11800
H884        H  0.73796502  0.79192636  0.59117389     0.13000
H885        H  0.73958739  0.77117110  0.62645451     0.12100
H886        H  0.74065267  0.82114751  0.70351034     0.09200
H887        H  0.74135549  0.79962143  0.73687076     0.12400
H888        H  0.73968158  0.76331200  0.67365338     0.14300
C889        C  0.22656597  0.34400677  0.10990392    -0.01200
C890        C  0.23932020  0.34552510  0.12872767    -0.09200
C891        C  0.24144572  0.33393518  0.14941288    -0.18100
C892        C  0.23070012  0.32051851  0.15195815     0.04300
C893        C  0.21711198  0.31980244  0.13395660     0.18500
C894        C  0.21528166  0.33136854  0.11311011    -0.19500
C895        C  0.20557836  0.30734599  0.13643366    -0.20800
C896        C  0.20738315  0.29532760  0.15614291    -0.19300
C897        C  0.22097832  0.29523877  0.17336736     0.19900
C898        C  0.23295120  0.30772603  0.17146067     0.02000
C899        C  0.24680839  0.30656534  0.18864551    -0.14000
C900        C  0.24853725  0.29363931  0.20709645    -0.11800
C901        C  0.23648054  0.28165749  0.20912504     0.01600
C902        C  0.22273689  0.28256503  0.19231427    -0.23900
H903        H  0.24810410  0.35530615  0.12677081     0.09600
H904        H  0.25165456  0.33571100  0.16293286     0.13100
H905        H  0.20515115  0.33037173  0.09898837     0.11800
H906        H  0.19511812  0.30685098  0.12293991     0.13000
H907        H  0.19823823  0.28582883  0.15754413     0.12100
H908        H  0.25659577  0.31531395  0.18801089     0.09200
H909        H  0.25922936  0.29307434  0.22005715     0.12400
H910        H  0.21346702  0.27317764  0.19381613     0.14300
C911        C  0.23089701  0.33957324  0.89383634    -0.01200
C912        C  0.21957033  0.32685169  0.89262042    -0.09200
C913        C  0.22017958  0.31527946  0.87185259    -0.18100
C914        C  0.23236689  0.31590709  0.85149484     0.04300
C915        C  0.24379315  0.32893778  0.85253208     0.18500
C916        C  0.24282563  0.34076066  0.87340074    -0.19500
C917        C  0.25631224  0.32984066  0.83312599    -0.20800
C918        C  0.25795495  0.31786315  0.81310011    -0.19300
C919        C  0.24695850  0.30483558  0.81170340     0.19900
C920        C  0.23379354  0.30386221  0.83054766     0.02000
C921        C  0.22265673  0.29079726  0.82772231    -0.14000
C922        C  0.22472574  0.27903696  0.80748749    -0.11800
C923        C  0.23796701  0.27975895  0.78964437     0.01600
C924        C  0.24903157  0.29270550  0.79164086    -0.23900
H925        H  0.21010260  0.32576891  0.90792675     0.09600
H926        H  0.21110772  0.30584497  0.87273547     0.13100
H927        H  0.25172070  0.35050701  0.87430753     0.11800
H928        H  0.26506245  0.33972501  0.83372396     0.13000
H929        H  0.26792786  0.31876961  0.79865469     0.12100
H930        H  0.21217787  0.28930197  0.84066883     0.09200
H931        H  0.21604463  0.26912178  0.80599254     0.12400
H932        H  0.25918468  0.29332805  0.77748968     0.14300
C933        C  0.24268504  0.54774730  0.99780759    -0.01200
C934        C  0.24116387  0.53947731  0.02272779    -0.09200
C935        C  0.24080082  0.52244299  0.02379614    -0.18100
C936        C  0.24197447  0.51291971  0.99978790     0.04300
C937        C  0.24346005  0.52127164  0.97450994     0.18500
C938        C  0.24382108  0.53845774  0.97373695    -0.19500
C939        C  0.24458268  0.51242445  0.95010481    -0.20800
C940        C  0.24429607  0.49543292  0.95025491    -0.19300
C941        C  0.24290937  0.48682837  0.97481700     0.19900
C942        C  0.24173619  0.49544287  0.99994721     0.02000
C943        C  0.24041715  0.48617612  0.02414817    -0.14000
C944        C  0.24023096  0.46914881  0.02341037    -0.11800
C945        C  0.24133227  0.46061565  0.99863849     0.01600
C946        C  0.24269612  0.46963082  0.97436782    -0.23900
H947        H  0.24017628  0.54611523  0.04173765     0.09600
H948        H  0.23956557  0.51714943  0.04375706     0.13100
H949        H  0.24501739  0.54452273  0.95424751     0.11800
H950        H  0.24569451  0.51869193  0.93073459     0.13000
H951        H  0.24519035  0.48897582  0.93099760     0.12100
H952        H  0.23951295  0.49167128  0.04402837     0.09200
H953        H  0.23914862  0.46274389  0.04259317     0.12400
H954        H  0.24361425  0.46333930  0.95500217     0.14300
C955        C  0.23550546  0.72912414  0.20482339    -0.01200
C956        C  0.24799449  0.71748835  0.20264768    -0.09200
C957        C  0.24742729  0.70530679  0.18266702    -0.18100
C958        C  0.23427617  0.70442523  0.16400328     0.04300
C959        C  0.22160528  0.71627647  0.16643284     0.18500
C960        C  0.22222118  0.72829332  0.18692598    -0.19500
C961        C  0.20851314  0.71624412  0.14811516    -0.20800
C962        C  0.20776903  0.70479529  0.12719839    -0.19300
C963        C  0.21996106  0.69290465  0.12431140     0.19900
C964        C  0.23329633  0.69237410  0.14285980     0.02000
C965        C  0.24499674  0.67976948  0.13941223    -0.14000
C966        C  0.24355040  0.66831411  0.11835065    -0.11800
C967        C  0.23058394  0.66914113  0.09980283     0.01600
C968        C  0.21884481  0.68150009  0.10294096    -0.23900
H969        H  0.25835233  0.71795231  0.21635443     0.09600
H970        H  0.25758727  0.69693150  0.18209449     0.13100
H971        H  0.21260460  0.73738353  0.18843996     0.11800
H972        H  0.19884773  0.72525893  0.14979941     0.13000
H973        H  0.19753599  0.70521632  0.11320747     0.12100
H974        H  0.25535954  0.67837095  0.15273413     0.09200
H975        H  0.25282809  0.65894536  0.11627688     0.12400
H976        H  0.20864775  0.68212852  0.08889051     0.14300
C977        C  0.23644766  0.72972710  0.78943140    -0.01200
C978        C  0.22256619  0.72949560  0.80604747    -0.09200
C979        C  0.22032076  0.71713250  0.82527761    -0.18100
C980        C  0.23194840  0.70444355  0.82846149     0.04300
C981        C  0.24604799  0.70476661  0.81155403     0.18500
C982        C  0.24810806  0.71726583  0.79220991    -0.19500
C983        C  0.25802255  0.69262566  0.81407383    -0.20800
C984        C  0.25636329  0.68016034  0.83314642    -0.19300
C985        C  0.24265905  0.67947682  0.85016000     0.19900
C986        C  0.23018677  0.69155309  0.84792522     0.02000
C987        C  0.21656097  0.69025951  0.86545425    -0.14000
C988        C  0.21570149  0.67798149  0.88507534    -0.11800
C989        C  0.22822337  0.66641998  0.88782173     0.01600
C990        C  0.24150513  0.66698168  0.86982418    -0.23900
H991        H  0.21345859  0.73905850  0.80429534     0.09600
H992        H  0.20937483  0.71792522  0.83740357     0.13100
H993        H  0.25880653  0.71730151  0.77917594     0.11800
H994        H  0.26881293  0.69282045  0.80128116     0.13000
H995        H  0.26592651  0.67103195  0.83470549     0.12100
H996        H  0.20642285  0.69866552  0.86480306     0.09200
H997        H  0.20517547  0.67764407  0.89842795     0.12400
H998        H  0.25128404  0.65811178  0.87185982     0.14300
C999        C  0.71273335  0.25760252  0.22298125    -0.01200
C1000       C  0.69984336  0.26882320  0.22369448    -0.09200
C1001       C  0.68709004  0.26782124  0.20481955    -0.18100
C1002       C  0.68708022  0.25566249  0.18425803     0.04300
C1003       C  0.70042103  0.24448249  0.18353966     0.18500
C1004       C  0.71284996  0.24532873  0.20317075    -0.19500
C1005       C  0.70147994  0.23273166  0.16289487    -0.20800
C1006       C  0.68980641  0.23209810  0.14239797    -0.19300
C1007       C  0.67652010  0.24288073  0.14250909     0.19900
C1008       C  0.67463982  0.25448095  0.16387858     0.02000
C1009       C  0.66046159  0.26443069  0.16369262    -0.14000
C1010       C  0.64914634  0.26349230  0.14234140    -0.11800
C1011       C  0.65167291  0.25276096  0.12048681     0.01600
C1012       C  0.66521615  0.24226267  0.12105294    -0.23900
H1013       H  0.69963437  0.27836359  0.23902254     0.09600
H1014       H  0.67762805  0.27694279  0.20642960     0.13100
H1015       H  0.72292695  0.23670626  0.20263921     0.11800
H1016       H  0.71162942  0.22421282  0.16222096     0.13000
H1017       H  0.69120473  0.22312763  0.12628870     0.12100
H1018       H  0.65782218  0.27307877  0.17969135     0.09200
H1019       H  0.63868730  0.27161294  0.14247935     0.12400
H1020       H  0.66704948  0.23361081  0.10457422     0.14300
C1021       C  0.65576105  0.25982102  0.90539648    -0.01200
C1022       C  0.67255745  0.25939930  0.91079253    -0.09200
C1023       C  0.68393142  0.25900445  0.88976959    -0.18100
C1024       C  0.67896690  0.25906445  0.86221834     0.04300
C1025       C  0.66196428  0.26006365  0.85658094     0.18500
C1026       C  0.65053316  0.26038661  0.87812594    -0.19500
C1027       C  0.65653967  0.26073241  0.82949692    -0.20800
C1028       C  0.66764986  0.26061325  0.80794609    -0.19300
C1029       C  0.68445707  0.25952175  0.81291227     0.19900
C1030       C  0.69032112  0.25842254  0.84014582     0.02000
C1031       C  0.70731725  0.25655867  0.84414121    -0.14000
C1032       C  0.71805214  0.25641653  0.82215214    -0.11800
C1033       C  0.71234815  0.25827549  0.79546148     0.01600
C1034       C  0.69548792  0.25950284  0.79086238    -0.23900
H1035       H  0.67711871  0.25948907  0.93149082     0.09600
H1036       H  0.69654916  0.25887390  0.89589442     0.13100
H1037       H  0.63759430  0.26083928  0.87361478     0.11800
H1038       H  0.64361681  0.26150414  0.82494824     0.13000
H1039       H  0.66306049  0.26132637  0.78724587     0.12100
H1040       H  0.71274624  0.25494080  0.86395950     0.09200
H1041       H  0.73096356  0.25474403  0.82603067     0.12400
H1042       H  0.69100024  0.26055556  0.77012552     0.14300
C1043       C  0.44678333  0.25759631  0.00288299    -0.01200
C1044       C  0.45489893  0.26491773  0.98089336    -0.09200
C1045       C  0.47186238  0.26692241  0.98112854    -0.18100
C1046       C  0.48142085  0.26150663  0.00343449     0.04300
C1047       C  0.47315489  0.25402024  0.02564490     0.18500
C1048       C  0.45606995  0.25222123  0.02523297    -0.19500
C1049       C  0.48198978  0.24826798  0.04813644    -0.20800
C1050       C  0.49888421  0.24972521  0.04907302    -0.19300
C1051       C  0.50742631  0.25700838  0.02757468     0.19900
C1052       C  0.49884482  0.26307925  0.00445942     0.02000
C1053       C  0.50812834  0.27032844  0.98336939    -0.14000
C1054       C  0.52515884  0.27118326  0.98494812    -0.11800
C1055       C  0.53358835  0.26501628  0.00762252     0.01600
C1056       C  0.52455338  0.25809073  0.02899537    -0.23900
H1057       H  0.44810107  0.26933088  0.96344534     0.09600
H1058       H  0.47712983  0.27271429  0.96348882     0.13100
H1059       H  0.45004102  0.24637663  0.04228274     0.11800
H1060       H  0.47578657  0.24252641  0.06512213     0.13000
H1061       H  0.50533033  0.24506028  0.06675196     0.12100
H1062       H  0.50260104  0.27539198  0.96530081     0.09200
H1063       H  0.53173922  0.27680756  0.96828877     0.12400
H1064       H  0.53085979  0.25316849  0.04660690     0.14300
C1065       C  0.32421002  0.24934314  0.10477074    -0.01200
C1066       C  0.30786889  0.25165972  0.09716831    -0.09200
C1067       C  0.29566110  0.25370849  0.11662094    -0.18100
C1068       C  0.29929044  0.25344784  0.14475608     0.04300
C1069       C  0.31595061  0.25188133  0.15257340     0.18500
C1070       C  0.32824199  0.24988556  0.13260206    -0.19500
C1071       C  0.32016199  0.25207456  0.18027350    -0.20800
C1072       C  0.30817446  0.25352033  0.20033211    -0.19300
C1073       C  0.29164097  0.25460977  0.19325505     0.19900
C1074       C  0.28695671  0.25457901  0.16533071     0.02000
C1075       C  0.27008628  0.25525376  0.15922216    -0.14000
C1076       C  0.25841808  0.25595814  0.17989699    -0.11800
C1077       C  0.26305608  0.25625541  0.20735216     0.01600
C1078       C  0.27971239  0.25550307  0.21391852    -0.23900
H1079       H  0.30435259  0.25194649  0.07589825     0.09600
H1080       H  0.28349418  0.25546308  0.10886287     0.13100
H1081       H  0.34084391  0.24830410  0.13876808     0.11800
H1082       H  0.33280645  0.25100050  0.18648109     0.13000
H1083       H  0.31185434  0.25355282  0.22157849     0.12100
H1084       H  0.26543275  0.25491242  0.13868626     0.09200
H1085       H  0.24562479  0.25601040  0.17436630     0.12400
H1086       H  0.28336462  0.25555185  0.23518951     0.14300
C1087       C  0.26565632  0.25614936  0.79155398    -0.01200
C1088       C  0.26037454  0.25330488  0.81823773    -0.09200
C1089       C  0.27149830  0.25233773  0.83967600    -0.18100
C1090       C  0.28845761  0.25410178  0.83508216     0.04300
C1091       C  0.29377664  0.25708323  0.80792202     0.18500
C1092       C  0.28238102  0.25800292  0.78645534    -0.19500
C1093       C  0.31043484  0.25894651  0.80236707    -0.20800
C1094       C  0.32197797  0.25767419  0.82314671    -0.19300
C1095       C  0.31717406  0.25448392  0.85004928     0.19900
C1096       C  0.30031637  0.25277913  0.85637807     0.02000
C1097       C  0.29604344  0.24968769  0.88376777    -0.14000
C1098       C  0.30792771  0.24801979  0.90384716    -0.11800
C1099       C  0.32459882  0.24933922  0.89768031     0.01600
C1100       C  0.32912056  0.25281181  0.87065101    -0.23900
H1101       H  0.24752805  0.25151366  0.82246150     0.09600
H1102       H  0.26638342  0.25000970  0.85952125     0.13100
H1103       H  0.28649352  0.26010137  0.76572032     0.11800
H1104       H  0.31458680  0.26129007  0.78174038     0.13000
H1105       H  0.33476847  0.25906583  0.81809187     0.12100
H1106       H  0.28360543  0.24844100  0.89048059     0.09200
H1107       H  0.30381693  0.24576458  0.92445051     0.12400
H1108       H  0.34192112  0.25393407  0.86549767     0.14300
C1109       C  0.74173187  0.67073507  0.10161795    -0.01200
C1110       C  0.74204413  0.68736785  0.09484029    -0.09200
C1111       C  0.74027911  0.69938830  0.11474404    -0.18100
C1112       C  0.73817910  0.69522464  0.14246919     0.04300
C1113       C  0.73758321  0.67835276  0.14932777     0.18500
C1114       C  0.73927561  0.66631554  0.12894603    -0.19500
C1115       C  0.73548485  0.67360424  0.17653217    -0.20800
C1116       C  0.73417538  0.68524037  0.19713684    -0.19300
C1117       C  0.73493619  0.70192462  0.19108043     0.19900
C1118       C  0.73683018  0.70718516  0.16361939     0.02000
C1119       C  0.73757726  0.72418845  0.15861385    -0.14000
C1120       C  0.73679011  0.73541122  0.17998374    -0.11800
C1121       C  0.73500813  0.73016554  0.20697267     0.01600
C1122       C  0.73404699  0.71340125  0.21239469    -0.23900
H1123       H  0.74353111  0.69126816  0.07390888     0.09600
H1124       H  0.74067091  0.71182098  0.10767504     0.13100
H1125       H  0.73900623  0.65351387  0.13448393     0.11800
H1126       H  0.73497944  0.66079002  0.18194989     0.13000
H1127       H  0.73269598  0.68114787  0.21801610     0.12100
H1128       H  0.73901848  0.72925191  0.13849801     0.09200
H1129       H  0.73789427  0.74830161  0.17542390     0.12400
H1130       H  0.73273109  0.70930948  0.23331870     0.14300
C1131       C  0.73892799  0.66944960  0.89543805    -0.01200
C1132       C  0.73743997  0.68598793  0.90242414    -0.09200
C1133       C  0.73601322  0.69799343  0.88246914    -0.18100
C1134       C  0.73619322  0.69392124  0.85447211     0.04300
C1135       C  0.73682192  0.67707982  0.84733687     0.18500
C1136       C  0.73811406  0.66501093  0.86780366    -0.19500
C1137       C  0.73648674  0.67245679  0.81981521    -0.20800
C1138       C  0.73582775  0.68419927  0.79925319    -0.19300
C1139       C  0.73572997  0.70088418  0.80563914     0.19900
C1140       C  0.73594984  0.70597793  0.83337868     0.02000
C1141       C  0.73645267  0.72293652  0.83880942    -0.14000
C1142       C  0.73667402  0.73430601  0.81767608    -0.11800
C1143       C  0.73601113  0.72932392  0.79037445     0.01600
C1144       C  0.73565793  0.71254236  0.78447669    -0.23900
H1145       H  0.73740130  0.68978546  0.92358566     0.09600
H1146       H  0.73485287  0.71035734  0.88971264     0.13100
H1147       H  0.73905563  0.65224257  0.86216843     0.11800
H1148       H  0.73685572  0.65966993  0.81413740     0.13000
H1149       H  0.73566551  0.68019651  0.77816812     0.12100
H1150       H  0.73708718  0.72785917  0.85915542     0.09200
H1151       H  0.73755907  0.74714492  0.82275717     0.12400
H1152       H  0.73536894  0.70857542  0.76336677     0.14300
C1153       C  0.73162606  0.46051303  0.00215495    -0.01200
C1154       C  0.72735304  0.46876628  0.97812041    -0.09200
C1155       C  0.72752443  0.48583205  0.97684991    -0.18100
C1156       C  0.73209889  0.49535219  0.99970017     0.04300
C1157       C  0.73641243  0.48695309  0.02404904     0.18500
C1158       C  0.73601449  0.46977412  0.02511902    -0.19500
C1159       C  0.74126950  0.49573666  0.04716916    -0.20800
C1160       C  0.74189657  0.51270997  0.04671103    -0.19300
C1161       C  0.73758020  0.52138592  0.02317838     0.19900
C1162       C  0.73261948  0.51285030  0.99930057     0.02000
C1163       C  0.72837806  0.52223362  0.97613624    -0.14000
C1164       C  0.72903767  0.53928508  0.97667223    -0.11800
C1165       C  0.73390120  0.54768903  0.00023227     0.01600
C1166       C  0.73816871  0.53858049  0.02343954    -0.23900
H1167       H  0.72378920  0.46202347  0.96009148     0.09600
H1168       H  0.72410538  0.49118858  0.95760028     0.13100
H1169       H  0.73952675  0.46363362  0.04378746     0.11800
H1170       H  0.74464987  0.48942479  0.06576492     0.13000
H1171       H  0.74573257  0.51910768  0.06497652     0.12100
H1172       H  0.72440973  0.51677444  0.95726813     0.09200
H1173       H  0.72549536  0.54589153  0.95849587     0.12400
H1174       H  0.74209827  0.54483956  0.04176946     0.14300
C1175       C  0.74470121  0.34109891  0.11178319    -0.01200
C1176       C  0.74256464  0.34703374  0.13837611    -0.09200
C1177       C  0.74118365  0.33630650  0.16052044    -0.18100
C1178       C  0.74173545  0.31916003  0.15673149     0.04300
C1179       C  0.74361666  0.31322973  0.12963251     0.18500
C1180       C  0.74516292  0.32413716  0.10767558    -0.19500
C1181       C  0.74390401  0.29641408  0.12449691    -0.20800
C1182       C  0.74238492  0.28528218  0.14570698    -0.19300
C1183       C  0.74069760  0.29065969  0.17265850     0.19900
C1184       C  0.74042983  0.30766636  0.17868169     0.02000
C1185       C  0.73903171  0.31234000  0.20641443    -0.14000
C1186       C  0.73789281  0.30062617  0.22712474    -0.11800
C1187       C  0.73796808  0.28392110  0.22095677     0.01600
C1188       C  0.73946029  0.27905867  0.19366298    -0.23900
H1189       H  0.74217641  0.36005302  0.14219020     0.09600
H1190       H  0.73962522  0.34180621  0.18034100     0.13100
H1191       H  0.74649745  0.31930518  0.08720850     0.11800
H1192       H  0.74528140  0.29182097  0.10386924     0.13000
H1193       H  0.74261684  0.27234599  0.14099602     0.12100
H1194       H  0.73894216  0.32494169  0.21277332     0.09200
H1195       H  0.73693925  0.30463266  0.24813839     0.12400
H1196       H  0.74003039  0.26614806  0.18881798     0.14300
C1197       C  0.74923434  0.34038124  0.89878754    -0.01200
C1198       C  0.76110350  0.32816404  0.89586750    -0.09200
C1199       C  0.76008185  0.31662366  0.87496424    -0.18100
C1200       C  0.74690217  0.31673109  0.85633812     0.04300
C1201       C  0.73472418  0.32900667  0.85960664     0.18500
C1202       C  0.73613511  0.34083075  0.88038204    -0.19500
C1203       C  0.72106865  0.32921483  0.84243207    -0.20800
C1204       C  0.71914822  0.31739788  0.82224283    -0.19300
C1205       C  0.73101122  0.30527407  0.81827231     0.19900
C1206       C  0.74521563  0.30493766  0.83494904     0.02000
C1207       C  0.75712420  0.29282142  0.82942195    -0.14000
C1208       C  0.75482321  0.28130435  0.80876944    -0.11800
C1209       C  0.74058058  0.28131976  0.79304847     0.01600
C1210       C  0.72876364  0.29344631  0.79773218    -0.23900
H1211       H  0.77132796  0.32753679  0.90982863     0.09600
H1212       H  0.76965757  0.30758340  0.87429613     0.13100
H1213       H  0.72672510  0.35006006  0.88278460     0.11800
H1214       H  0.71168550  0.33846308  0.84486703     0.13000
H1215       H  0.70832233  0.31778659  0.80955376     0.12100
H1216       H  0.76841161  0.29194557  0.84059980     0.09200
H1217       H  0.76411088  0.27207318  0.80540113     0.12400
H1218       H  0.71780224  0.29363719  0.78533570     0.14300
C1219       C  0.32375432  0.74767487  0.10095118    -0.01200
C1220       C  0.30728110  0.74810331  0.09337524    -0.09200
C1221       C  0.29501961  0.74954778  0.11282328    -0.18100
C1222       C  0.29877822  0.75059219  0.14087116     0.04300
C1223       C  0.31551204  0.75026155  0.14861810     0.18500
C1224       C  0.32782884  0.74895547  0.12865098    -0.19500
C1225       C  0.31980632  0.75107703  0.17623760    -0.20800
C1226       C  0.30782722  0.75200636  0.19634244    -0.19300
C1227       C  0.29126412  0.75229143  0.18932816     0.19900
C1228       C  0.28650582  0.75179997  0.16144671     0.02000
C1229       C  0.26965001  0.75257673  0.15536120    -0.14000
C1230       C  0.25805141  0.75348237  0.17604559    -0.11800
C1231       C  0.26273114  0.75326797  0.20347895     0.01600
C1232       C  0.27938394  0.75296841  0.21001763    -0.23900
H1233       H  0.30372294  0.74747804  0.07213742     0.09600
H1234       H  0.28272626  0.74967450  0.10511687     0.13100
H1235       H  0.34054076  0.74858533  0.13471091     0.11800
H1236       H  0.33250909  0.75084864  0.18234675     0.13000
H1237       H  0.31154987  0.75247329  0.21755445     0.12100
H1238       H  0.26495808  0.75263834  0.13484750     0.09200
H1239       H  0.24527834  0.75430726  0.17053949     0.12400
H1240       H  0.28306809  0.75302094  0.23127434     0.14300
C1241       C  0.26625672  0.75107038  0.78828289    -0.01200
C1242       C  0.28259331  0.74912829  0.78042961    -0.09200
C1243       C  0.29497940  0.74781509  0.79998686    -0.18100
C1244       C  0.29137189  0.74838564  0.82821940     0.04300
C1245       C  0.27473699  0.75033608  0.83597571     0.18500
C1246       C  0.26249859  0.75190060  0.81612604    -0.19500
C1247       C  0.27034981  0.75071092  0.86353408    -0.20800
C1248       C  0.28212496  0.74923029  0.88371354    -0.19300
C1249       C  0.29861366  0.74751282  0.87685126     0.19900
C1250       C  0.30357064  0.74713602  0.84906244     0.02000
C1251       C  0.32050102  0.74569536  0.84352853    -0.14000
C1252       C  0.33193604  0.74470368  0.86475213    -0.11800
C1253       C  0.32686792  0.74486923  0.89203180     0.01600
C1254       C  0.31017140  0.74628461  0.89781516    -0.23900
H1255       H  0.28577305  0.74845402  0.75900483     0.09600
H1256       H  0.30722737  0.74624054  0.79239002     0.13100
H1257       H  0.24993041  0.75375916  0.82237231     0.11800
H1258       H  0.25768779  0.75211252  0.86954504     0.13000
H1259       H  0.27830657  0.74953355  0.90488316     0.12100
H1260       H  0.32527941  0.74541403  0.82305160     0.09200
H1261       H  0.34477221  0.74358398  0.85978905     0.12400
H1262       H  0.30609043  0.74676196  0.91882834     0.14300
C1263       C  0.53267134  0.75635482  0.00049673    -0.01200
C1264       C  0.52449947  0.75885673  0.02531649    -0.09200
C1265       C  0.50747228  0.75939616  0.02649420    -0.18100
C1266       C  0.49791435  0.75743873  0.00271308     0.04300
C1267       C  0.50620860  0.75446544  0.97769761     0.18500
C1268       C  0.52335525  0.75402099  0.97679562    -0.19500
C1269       C  0.49735129  0.75198892  0.95364863    -0.20800
C1270       C  0.48040191  0.75250719  0.95383035    -0.19300
C1271       C  0.47186800  0.75572178  0.97799683     0.19900
C1272       C  0.48046637  0.75830786  0.00279758     0.02000
C1273       C  0.47120516  0.76181572  0.02646912    -0.14000
C1274       C  0.45416859  0.76252147  0.02554439    -0.11800
C1275       C  0.44571158  0.75974315  0.00111111     0.01600
C1276       C  0.45473930  0.75639616  0.97740005    -0.23900
H1277       H  0.53122843  0.76065813  0.04405031     0.09600
H1278       H  0.50217876  0.76136939  0.04634013     0.13100
H1279       H  0.52939916  0.75179332  0.95749664     0.11800
H1280       H  0.50357988  0.74963050  0.93452869     0.13000
H1281       H  0.47392079  0.75051149  0.93485016     0.12100
H1282       H  0.47674591  0.76419630  0.04598201     0.09200
H1283       H  0.44765161  0.76533371  0.04417465     0.12400
H1284       H  0.44849880  0.75415303  0.95831696     0.14300
C1285       C  0.71175320  0.75857541  0.20894589    -0.01200
C1286       C  0.71153375  0.77302170  0.19374378    -0.09200
C1287       C  0.69971812  0.77564148  0.17374419    -0.18100
C1288       C  0.68758498  0.76382602  0.16835090     0.04300
C1289       C  0.68750339  0.74942564  0.18457768     0.18500
C1290       C  0.69959978  0.74688377  0.20450228    -0.19500
C1291       C  0.67538656  0.73764113  0.18074133    -0.20800
C1292       C  0.66344129  0.73972523  0.16086172    -0.19300
C1293       C  0.66350296  0.75348936  0.14393457     0.19900
C1294       C  0.67562347  0.76572025  0.14735636     0.02000
C1295       C  0.67550605  0.77908756  0.12910538    -0.14000
C1296       C  0.66409935  0.78005978  0.10806065    -0.11800
C1297       C  0.65223045  0.76797922  0.10471739     0.01600
C1298       C  0.65178272  0.75487588  0.12306891    -0.23900
H1299       H  0.72074223  0.78226589  0.19713406     0.09600
H1300       H  0.70040240  0.78707554  0.16295462     0.13100
H1301       H  0.69956189  0.73582528  0.21666974     0.11800
H1302       H  0.67516939  0.72670000  0.19316921     0.13000
H1303       H  0.65427007  0.73033985  0.15835600     0.12100
H1304       H  0.68432316  0.78879710  0.13005009     0.09200
H1305       H  0.66462336  0.79034014  0.09419842     0.12400
H1306       H  0.64275143  0.74536652  0.12037528     0.14300
C1307       C  0.65164200  0.76710549  0.89018998    -0.01200
C1308       C  0.66330778  0.77936521  0.88697946    -0.09200
C1309       C  0.67508578  0.77833501  0.86660858    -0.18100
C1310       C  0.67578589  0.76472469  0.84889261     0.04300
C1311       C  0.66372265  0.75239146  0.85188860     0.18500
C1312       C  0.65163597  0.75379960  0.87219816    -0.19500
C1313       C  0.66406472  0.73856345  0.83506394    -0.20800
C1314       C  0.67626808  0.73660138  0.81556021    -0.19300
C1315       C  0.68835469  0.74847489  0.81225239     0.19900
C1316       C  0.68819713  0.76279803  0.82869853     0.02000
C1317       C  0.70057247  0.77451848  0.82438299    -0.14000
C1318       C  0.71263204  0.77203949  0.80480884    -0.11800
C1319       C  0.71285957  0.75784676  0.78897337     0.01600
C1320       C  0.70065620  0.74611844  0.79262982    -0.23900
H1321       H  0.66341231  0.78982894  0.90052496     0.09600
H1322       H  0.68362961  0.78826401  0.86571847     0.13100
H1323       H  0.64268981  0.74420322  0.87478542     0.11800
H1324       H  0.65494593  0.72910135  0.83723045     0.13000
H1325       H  0.67629028  0.72568041  0.80304395     0.12100
H1326       H  0.70133687  0.78574268  0.83573061     0.09200
H1327       H  0.72199752  0.78121727  0.80218693     0.12400
H1328       H  0.70074610  0.73519317  0.78010529     0.14300
loop_ 
_geom_bond_atom_site_label_1 
_geom_bond_atom_site_label_2 
_geom_bond_distance 
_geom_bond_site_symmetry_2 
_ccdc_geom_bond_type 
N1            N2   1.321       .  A
N1            C5   1.349       .  A
N1           Cu9   2.081       .  S
N2            C3   1.339       .  A
N2           Cu8   2.059       .  S
C3            C4   1.380       .  A
C3            H6   1.082       .  S
C4            C5   1.387       .  A
C4         C1307   1.475       .  S
C5            H7   1.082       .  S
Cu8          N11   2.059   1_556  S
Cu9          N19   2.083       .  S
Cu10         N12   2.080       .  S
Cu10         N18   2.082       .  S
N11          N12   1.320       .  A
N11          C15   1.342       .  A
N12          C13   1.348       .  A
C13          C14   1.388       .  A
C13          H16   1.082       .  S
C14          C15   1.383       .  A
C14        C1297   1.479       .  S
C15          H17   1.082       .  S
N18          N19   1.323   1_554  A
N18          C22   1.344       .  A
N19          C20   1.346       .  A
C20          C21   1.389       .  A
C20          H23   1.081       .  S
C21          C22   1.388   1_556  A
C21        C1263   1.489   1_556  S
C22          H24   1.081       .  S
N25          N26   1.319       .  A
N25          C29   1.350       .  A
N25         Cu33   2.080       .  S
N26          C27   1.337       .  A
N26         Cu32   2.050   1_554  S
C27          C28   1.382       .  A
C27          H30   1.081       .  S
C28          C29   1.391       .  A
C28        C1219   1.480       .  S
C29          H31   1.082       .  S
Cu32         N35   2.051       .  S
Cu33         N43   2.084       .  S
Cu34         N36   2.086       .  S
Cu34         N42   2.088       .  S
N35          N36   1.319       .  A
N35          C39   1.339       .  A
N36          C37   1.351       .  A
C37          C38   1.392       .  A
C37          H40   1.082       .  S
C38          C39   1.382       .  A
C38        C1253   1.483       .  S
C39          H41   1.082       .  S
N42          N43   1.325   1_556  A
N42          C46   1.345       .  A
N43          C44   1.345       .  A
C44          C45   1.388       .  A
C44          H47   1.081       .  S
C45          C46   1.388   1_554  A
C45        C1275   1.489       .  S
C46          H48   1.081       .  S
N49          N50   1.321       .  A
N49          C53   1.350       .  A
N49         Cu57   2.093       .  S
N50          C51   1.342       .  A
N50         Cu56   2.066       .  S
C51          C52   1.385       .  A
C51          H54   1.081       .  S
C52          C53   1.392       .  A
C52        C1175   1.489       .  S
C53          H55   1.082       .  S
Cu56         N59   2.065   1_554  S
Cu57         N67   2.094       .  S
Cu58         N60   2.087       .  S
Cu58         N66   2.088       .  S
N59          N60   1.321       .  A
N59          C63   1.343       .  A
N60          C61   1.349       .  A
C61          C62   1.389       .  A
C61          H64   1.082       .  S
C62          C63   1.384       .  A
C62        C1197   1.483       .  S
C63          H65   1.082       .  S
N66          N67   1.324   1_556  A
N66          C70   1.346       .  A
N67          C68   1.348       .  A
C68          C69   1.390       .  A
C68          H71   1.081       .  S
C69          C70   1.388   1_554  A
C69        C1153   1.491       .  S
C70          H72   1.081       .  S
N73          N74   1.319       .  A
N73          C77   1.352       .  A
N73         Cu81   2.091       .  S
N74          C75   1.339       .  A
N74         Cu80   2.053       .  S
C75          C76   1.383       .  A
C75          H78   1.082       .  S
C76          C77   1.393       .  A
C76        C1131   1.486       .  S
C77          H79   1.082       .  S
Cu80         N83   2.052   1_556  S
Cu81         N91   2.094       .  S
Cu82         N84   2.089       .  S
Cu82         N90   2.092       .  S
N83          N84   1.320       .  A
N83          C87   1.338       .  A
N84          C85   1.351       .  A
C85          C86   1.393       .  A
C85          H88   1.082       .  S
C86          C87   1.383       .  A
C86        C1109   1.485       .  S
C87          H89   1.081       .  S
N90          N91   1.325   1_554  A
N90          C94   1.348       .  A
N91          C92   1.345       .  A
C92          C93   1.388   1_556  A
C92          H95   1.081       .  S
C93          C94   1.389       .  A
C93        C1165   1.491       .  S
C94          H96   1.081       .  S
N97          N98   1.319       .  A
N97         C101   1.354       .  A
N97        Cu105   2.099       .  S
N98          C99   1.337       .  A
N98        Cu104   2.051   1_556  S
C99         C100   1.384       .  A
C99         H102   1.081       .  S
C100        C101   1.397       .  A
C100       C1099   1.492       .  S
C101        H103   1.082       .  S
Cu104       N107   2.051       .  S
Cu105       N115   2.103       .  S
Cu106       N108   2.095       .  S
Cu106       N114   2.098       .  S
N107        N108   1.319       .  A
N107        C111   1.338       .  A
N108        C109   1.353       .  A
C109        C110   1.395       .  A
C109        H112   1.082       .  S
C110        C111   1.383       .  A
C110       C1065   1.488       .  S
C111        H113   1.081       .  S
N114        N115   1.327   1_554  A
N114        C118   1.347       .  A
N115        C116   1.348       .  A
C116        C117   1.389   1_556  A
C116        H119   1.081       .  S
C117        C118   1.387       .  A
C117       C1043   1.492       .  S
C118        H120   1.081       .  S
N121        N122   1.319       .  A
N121        C125   1.352       .  A
N121       Cu129   2.092       .  S
N122        C123   1.337       .  A
N122       Cu128   2.051   1_556  S
C123        C124   1.383       .  A
C123        H126   1.081       .  S
C124        C125   1.394       .  A
C124       C1021   1.486       .  S
C125        H127   1.082       .  S
Cu128       N131   2.051       .  S
Cu129       N139   2.095       .  S
Cu130       N132   2.091       .  S
Cu130       N138   2.094       .  S
N131        N132   1.319       .  A
N131        C135   1.340       .  A
N132        C133   1.350       .  A
C133        C134   1.392       .  A
C133        H136   1.082       .  S
C134        C135   1.382       .  A
C134       C1011   1.482       .  S
C135        H137   1.082       .  S
N138        N139   1.326   1_554  A
N138        C142   1.347       .  A
N139        C140   1.347       .  A
C140        C141   1.388   1_556  A
C140        H143   1.081       .  S
C141        C142   1.388       .  A
C141       C1055   1.490       .  S
C142        H144   1.081       .  S
N145        N146   1.321       .  A
N145        C149   1.351       .  A
N145       Cu153   2.087       .  S
N146        C147   1.340       .  A
N146       Cu152   2.062       .  S
C147        C148   1.382       .  A
C147        H150   1.082       .  S
C148        C149   1.391       .  A
C148        C989   1.482       .  S
C149        H151   1.082       .  S
Cu152       N155   2.063   1_556  S
Cu153       N163   2.087       .  S
Cu154       N156   2.085       .  S
Cu154       N162   2.086       .  S
N155        N156   1.320       .  A
N155        C159   1.343       .  A
N156        C157   1.348       .  A
C157        C158   1.390       .  A
C157        H160   1.082       .  S
C158        C159   1.384       .  A
C158        C967   1.484       .  S
C159        H161   1.082       .  S
N162        N163   1.323   1_554  A
N162        C166   1.345       .  A
N163        C164   1.347       .  A
C164        C165   1.390       .  A
C164        H167   1.081       .  S
C165        C166   1.390   1_556  A
C165        C933   1.493       .  S
C166        H168   1.081       .  S
N169        N170   1.322       .  A
N169        C173   1.350       .  A
N169       Cu177   2.084       .  S
N170        C171   1.340       .  A
N170       Cu176   2.064   1_556  S
C171        C172   1.383       .  A
C171        H174   1.082       .  S
C172        C173   1.388       .  A
C172        C911   1.480       .  S
C173        H175   1.082       .  S
Cu176       N179   2.063       .  S
Cu177       N187   2.085       .  S
Cu178       N180   2.074       .  S
Cu178       N186   2.076       .  S
N179        N180   1.320       .  A
N179        C183   1.341       .  A
N180        C181   1.348       .  A
C181        C182   1.387       .  A
C181        H184   1.082       .  S
C182        C183   1.383       .  A
C182        C889   1.478       .  S
C183        H185   1.082       .  S
N186        N187   1.323   1_554  A
N186        C190   1.342       .  A
N187        C188   1.347       .  A
C188        C189   1.391       .  A
C188        H191   1.081       .  S
C189        C190   1.388   1_556  A
C189        C945   1.491       .  S
C190        H192   1.080       .  S
N193        N194   1.319       .  A
N193        C197   1.350       .  A
N193       Cu201   2.089       .  S
N194        C195   1.338       .  A
N194       Cu200   2.048       .  S
C195        C196   1.382       .  A
C195        H198   1.081       .  S
C196        C197   1.393       .  A
C196        C845   1.484       .  S
C197        H199   1.082       .  S
Cu200       N203   2.048       .  S
Cu201       N211   2.092       .  S
Cu202       N204   2.088       .  S
Cu202       N210   2.091       .  S
N203        N204   1.319       .  A
N203        C207   1.338       .  A
N204        C205   1.351       .  A
C205        C206   1.392       .  A
C205        H208   1.082       .  S
C206        C207   1.383       .  A
C206        C867   1.484       .  S
C207        H209   1.081       .  S
N210        N211   1.325       .  A
N210        C214   1.345       .  A
N211        C212   1.348       .  A
C212        C213   1.390       .  A
C212        H215   1.081       .  S
C213        C214   1.389       .  A
C213        C823   1.493       .  S
C214        H216   1.081       .  S
N217        N218   1.321       .  A
N217        C221   1.350       .  A
N217       Cu225   2.092       .  S
N218        C219   1.340       .  A
N218       Cu224   2.057       .  S
C219        C220   1.384       .  A
C219        H222   1.081       .  S
C220        C221   1.393       .  A
C220        C813   1.487       .  S
C221        H223   1.082       .  S
Cu224       N227   2.057       .  S
Cu225       N235   2.093       .  S
Cu226       N228   2.089       .  S
Cu226       N234   2.091       .  S
N227        N228   1.320       .  A
N227        C231   1.341       .  A
N228        C229   1.349       .  A
C229        C230   1.392       .  A
C229        H232   1.082       .  S
C230        C231   1.384       .  A
C230        C791   1.485       .  S
C231        H233   1.082       .  S
N234        N235   1.324       .  A
N234        C238   1.346       .  A
N235        C236   1.348       .  A
C236        C237   1.390       .  A
C236        H239   1.081       .  S
C237        C238   1.389       .  A
C237        C835   1.492       .  S
C238        H240   1.081       .  S
N241        N242   1.321       .  A
N241        C245   1.350       .  A
N241       Cu249   2.099       .  S
N242        C243   1.342       .  A
N242       Cu248   2.057       .  S
C243        C244   1.382       .  A
C243        H246   1.082       .  S
C244        C245   1.392       .  A
C244        C757   1.484       .  S
C245        H247   1.082       .  S
Cu248       N251   2.056       .  S
Cu249       N259   2.101       .  S
Cu250       N252   2.084       .  S
Cu250       N258   2.086       .  S
N251        N252   1.320       .  A
N251        C255   1.340       .  A
N252        C253   1.349       .  A
C253        C254   1.390       .  A
C253        H256   1.082       .  S
C254        C255   1.382       .  A
C254        C735   1.480       .  S
C255        H257   1.082       .  S
N258        N259   1.323       .  A
N258        C262   1.345       .  A
N259        C260   1.350       .  A
C260        C261   1.393       .  A
C260        H263   1.081       .  S
C261        C262   1.390       .  A
C261        C713   1.498       .  S
C262        H264   1.081       .  S
N265        N266   1.320       .  A
N265        C269   1.353       .  A
N265       Cu273   2.103       .  S
N266        C267   1.340       .  A
N266       Cu272   2.050       .  S
C267        C268   1.382       .  A
C267        H270   1.082       .  S
C268        C269   1.395       .  A
C268        C691   1.487       .  S
C269        H271   1.082       .  S
Cu272       N275   2.049       .  S
Cu273       N283   2.106       .  S
Cu274       N276   2.093       .  S
Cu274       N282   2.096       .  S
N275        N276   1.320       .  A
N275        C279   1.339       .  A
N276        C277   1.351       .  A
C277        C278   1.392       .  A
C277        H280   1.082       .  S
C278        C279   1.381       .  A
C278        C669   1.483       .  S
C279        H281   1.082       .  S
N282        N283   1.325       .  A
N282        C286   1.349       .  A
N283        C284   1.347       .  A
C284        C285   1.392       .  A
C284        H287   1.081       .  S
C285        C286   1.391       .  A
C285        C725   1.499       .  S
C286        H288   1.081       .  S
C289        C290   1.417       .  A
C289        C294   1.402       .  A
C289       C1319   1.480       .  S
C290        C291   1.406       .  A
C290       C1143   1.491       .  S
C291        C292   1.407       .  A
C291        H296   1.084       .  S
C292        C293   1.416       .  A
C292        C747   1.480       .  S
C293        C294   1.400       .  A
C293        C879   1.489       .  S
C294        H295   1.085       .  S
C297        C298   1.417       .  A
C297        C302   1.407       .  A
C297       C1121   1.484       .  S
C298        C299   1.401       .  A
C298       C1285   1.484       .  S
C299        C300   1.401       .  A
C299        H304   1.085       .  S
C300        C301   1.415       .  A
C300        C857   1.482       .  S
C301        C302   1.404       .  A
C301        C769   1.485       .  S
C302        H303   1.084       .  S
N305        N306   1.320       .  A
N305        C309   1.351       .  A
N305       Cu313   2.095       .  S
N306        C307   1.340       .  A
N306       Cu312   2.051       .  S
C307        C308   1.381       .  A
C307        H310   1.082       .  S
C308        C309   1.393       .  A
C308        C647   1.484       .  S
C309        H311   1.082       .  S
Cu312       N315   2.051       .  S
Cu313       N323   2.097       .  S
Cu314       N316   2.097       .  S
Cu314       N322   2.100       .  S
N315        N316   1.320       .  A
N315        C319   1.339       .  A
N316        C317   1.352       .  A
C317        C318   1.394       .  A
C317        H320   1.082       .  S
C318        C319   1.381       .  A
C318        C637   1.484       .  S
C319        H321   1.082       .  S
N322        N323   1.326       .  A
N322        C326   1.347       .  A
N323        C324   1.348       .  A
C324        C325   1.389       .  A
C324        H327   1.081       .  S
C325        C326   1.390       .  A
C325        C603   1.494       .  S
C326        H328   1.081       .  S
N329        N330   1.320       .  A
N329        C333   1.350       .  A
N329       Cu337   2.089       .  S
N330        C331   1.338       .  A
N330       Cu336   2.047       .  S
C331        C332   1.382       .  A
C331        H334   1.082       .  S
C332        C333   1.392       .  A
C332        C559   1.482       .  S
C333        H335   1.082       .  S
Cu336       N339   2.047       .  S
Cu337       N347   2.092       .  S
Cu338       N340   2.082       .  S
Cu338       N346   2.085       .  S
N339        N340   1.320       .  A
N339        C343   1.338       .  A
N340        C341   1.349       .  A
C341        C342   1.389       .  A
C341        H344   1.082       .  S
C342        C343   1.380       .  A
C342        C593   1.476       .  S
C343        H345   1.082       .  S
N346        N347   1.324       .  A
N346        C350   1.345       .  A
N347        C348   1.347       .  A
C348        C349   1.389       .  A
C348        H351   1.081       .  S
C349        C350   1.388       .  A
C349        C615   1.491       .  S
C350        H352   1.081       .  S
C353        C354   1.420       .  A
C353        C358   1.407       .  A
C353        C977   1.488       .  S
C354        C355   1.407       .  A
C354       C1241   1.491       .  S
C355        C356   1.405       .  A
C355        H360   1.084       .  S
C356        C357   1.415       .  A
C356        C625   1.484       .  S
C357        C358   1.404       .  A
C357        C703   1.489       .  S
C358        H359   1.084       .  S
C361        C362   1.418       .  A
C361        C366   1.404       .  A
C361       C1231   1.485       .  S
C362        C363   1.403       .  A
C362        C955   1.488       .  S
C363        C364   1.405       .  A
C363        H368   1.084       .  S
C364        C365   1.416       .  A
C364        C681   1.484       .  S
C365        C366   1.402       .  A
C365        C659   1.483       .  S
C366        H367   1.084       .  S
N369        N370   1.319       .  A
N369        C373   1.351       .  A
N369       Cu377   2.087       .  S
N370        C371   1.340       .  A
N370       Cu376   2.056       .  S
C371        C372   1.382       .  A
C371        H374   1.082       .  S
C372        C373   1.391       .  A
C372        C527   1.482       .  S
C373        H375   1.082       .  S
Cu376       N379   2.055       .  S
Cu377       N387   2.090       .  S
Cu378       N380   2.093       .  S
Cu378       N386   2.095       .  S
N379        N380   1.320       .  A
N379        C383   1.338       .  A
N380        C381   1.353       .  A
C381        C382   1.394       .  A
C381        H384   1.082       .  S
C382        C383   1.382       .  A
C382        C549   1.486       .  S
C383        H385   1.081       .  S
N386        N387   1.325       .  A
N386        C390   1.347       .  A
N387        C388   1.346       .  A
C388        C389   1.388       .  A
C388        H391   1.081       .  S
C389        C390   1.389       .  A
C389        C493   1.492       .  S
C390        H392   1.081       .  S
N393        N394   1.321       .  A
N393        C397   1.349       .  A
N393       Cu401   2.084       .  S
N394        C395   1.341       .  A
N394       Cu400   2.060       .  S
C395        C396   1.381       .  A
C395        H398   1.082       .  S
C396        C397   1.388       .  A
C396        C471   1.477       .  S
C397        H399   1.082       .  S
Cu400       N403   2.061       .  S
Cu401       N411   2.086       .  S
Cu402       N404   2.080       .  S
Cu402       N410   2.082       .  S
N403        N404   1.320       .  A
N403        C407   1.340       .  A
N404        C405   1.349       .  A
C405        C406   1.390       .  A
C405        H408   1.082       .  S
C406        C407   1.385       .  A
C406        C449   1.484       .  S
C407        H409   1.081       .  S
N410        N411   1.324       .  A
N410        C414   1.345       .  A
N411        C412   1.346       .  A
C412        C413   1.388       .  A
C412        H415   1.081       .  S
C413        C414   1.387       .  A
C413        C505   1.488       .  S
C414        H416   1.081       .  S
C417        C418   1.418       .  A
C417        C422   1.406       .  A
C417       C1209   1.490       .  S
C418        C419   1.403       .  A
C418       C1033   1.484       .  S
C419        C420   1.403       .  A
C419        H424   1.085       .  S
C420        C421   1.417       .  A
C420        C779   1.484       .  S
C421        C422   1.405       .  A
C421        C537   1.488       .  S
C422        H423   1.084       .  S
C425        C426   1.415       .  A
C425        C430   1.403       .  A
C425        C999   1.478       .  S
C426        C427   1.405       .  A
C426       C1187   1.490       .  S
C427        C428   1.406       .  A
C427        H432   1.084       .  S
C428        C429   1.415       .  A
C428        C515   1.483       .  S
C429        C430   1.403       .  A
C429        C801   1.485       .  S
C430        H431   1.085       .  S
C433        C434   1.413       .  A
C433        C438   1.401       .  A
C433       C1087   1.484       .  S
C434        C435   1.403       .  A
C434        C923   1.477       .  S
C435        C436   1.403       .  A
C435        H440   1.085       .  S
C436        C437   1.417       .  A
C436        C461   1.489       .  S
C437        C438   1.404       .  A
C437        C581   1.477       .  S
C438        H439   1.085       .  S
C441        C442   1.416       .  A
C441        C446   1.400       .  A
C441        C901   1.480       .  S
C442        C443   1.406       .  A
C442       C1077   1.488       .  S
C443        C444   1.407       .  A
C443        H448   1.084       .  S
C444        C445   1.417       .  A
C444        C571   1.484       .  S
C445        C446   1.400       .  A
C445        C483   1.486       .  S
C446        H447   1.085       .  S
C449        C450   1.401       .  A
C449        C454   1.401       .  A
C450        C451   1.401       .  A
C450        H463   1.083       .  S
C451        C452   1.417       .  A
C451        H464   1.077       .  S
C452        C458   1.432       .  A
C452        C453   1.421       .  A
C453        C455   1.399       .  A
C453        C454   1.401       .  A
C454        H465   1.083       .  S
C455        C456   1.387       .  A
C455        H466   1.084       .  S
C456        C457   1.398       .  A
C456        H467   1.084       .  S
C457        C458   1.423       .  A
C457        C462   1.402       .  A
C458        C459   1.415       .  A
C459        C460   1.399       .  A
C459        H468   1.077       .  S
C460        C461   1.402       .  A
C460        H469   1.083       .  S
C461        C462   1.399       .  A
C462        H470   1.084       .  S
C471        C472   1.399       .  A
C471        C476   1.399       .  A
C472        C473   1.400       .  A
C472        H485   1.083       .  S
C473        C474   1.417       .  A
C473        H486   1.077       .  S
C474        C480   1.432       .  A
C474        C475   1.423       .  A
C475        C477   1.399       .  A
C475        C476   1.403       .  A
C476        H487   1.084       .  S
C477        C478   1.388       .  A
C477        H488   1.084       .  S
C478        C479   1.398       .  A
C478        H489   1.084       .  S
C479        C480   1.423       .  A
C479        C484   1.402       .  A
C480        C481   1.416       .  A
C481        C482   1.399       .  A
C481        H490   1.078       .  S
C482        C483   1.400       .  A
C482        H491   1.083       .  S
C483        C484   1.399       .  A
C484        H492   1.085       .  S
C493        C494   1.403       .  A
C493        C498   1.405       .  A
C494        C495   1.399       .  A
C494        H507   1.082       .  S
C495        C496   1.415       .  A
C495        H508   1.078       .  S
C496        C502   1.433       .  A
C496        C497   1.422       .  A
C497        C499   1.400       .  A
C497        C498   1.407       .  A
C498        H509   1.082       .  S
C499        C500   1.390       .  A
C499        H510   1.084       .  S
C500        C501   1.399   1_655  A
C500        H511   1.084   1_655  S
C501        C502   1.422   1_455  A
C501        C506   1.406       .  A
C502        C503   1.414   1_655  A
C503        C504   1.398       .  A
C503        H512   1.078       .  S
C504        C505   1.402       .  A
C504        H513   1.082       .  S
C505        C506   1.403       .  A
C506        H514   1.084       .  S
C515        C516   1.397       .  A
C515        C520   1.401       .  A
C516        C517   1.396       .  A
C516        H529   1.083       .  S
C517        C518   1.416       .  A
C517        H530   1.077       .  S
C518        C524   1.430       .  A
C518        C519   1.422       .  A
C519        C521   1.400       .  A
C519        C520   1.407       .  A
C520        H531   1.085       .  S
C521        C522   1.392       .  A
C521        H532   1.084       .  S
C522        C523   1.400       .  A
C522        H533   1.084       .  S
C523        C524   1.424       .  A
C523        C528   1.410       .  A
C524        C525   1.413       .  A
C525        C526   1.394       .  A
C525        H534   1.077       .  S
C526        C527   1.400       .  A
C526        H535   1.083       .  S
C527        C528   1.402       .  A
C528        H536   1.084       .  S
C537        C538   1.398       .  A
C537        C542   1.404       .  A
C538        C539   1.395       .  A
C538        H551   1.083       .  S
C539        C540   1.416       .  A
C539        H552   1.076       .  S
C540        C546   1.431       .  A
C540        C541   1.422       .  A
C541        C543   1.401       .  A
C541        C542   1.409       .  A
C542        H553   1.084       .  S
C543        C544   1.394       .  A
C543        H554   1.084       .  S
C544        C545   1.401       .  A
C544        H555   1.084       .  S
C545        C546   1.424       .  A
C545        C550   1.413       .  A
C546        C547   1.411       .  A
C547        C548   1.391       .  A
C547        H556   1.076       .  S
C548        C549   1.402       .  A
C548        H557   1.082       .  S
C549        C550   1.404       .  A
C550        H558   1.084       .  S
C559        C560   1.400       .  A
C559        C564   1.402       .  A
C560        C561   1.400       .  A
C560        H573   1.083       .  S
C561        C562   1.417       .  A
C561        H574   1.077       .  S
C562        C568   1.431       .  A
C562        C563   1.421       .  A
C563        C565   1.399       .  A
C563        C564   1.401       .  A
C564        H575   1.083       .  S
C565        C566   1.387       .  A
C565        H576   1.084       .  S
C566        C567   1.398       .  A
C566        H577   1.084       .  S
C567        C568   1.423       .  A
C567        C572   1.401       .  A
C568        C569   1.416       .  A
C569        C570   1.398       .  A
C569        H578   1.078       .  S
C570        C571   1.400       .  A
C570        H579   1.083       .  S
C571        C572   1.398       .  A
C572        H580   1.085       .  S
C581        C582   1.395       .  A
C581        C586   1.400       .  A
C582        C583   1.391       .  A
C582        H595   1.083       .  S
C583        C584   1.415       .  A
C583        H596   1.077       .  S
C584        C590   1.427       .  A
C584        C585   1.423       .  A
C585        C587   1.400       .  A
C585        C586   1.405       .  A
C586        H597   1.085       .  S
C587        C588   1.392       .  A
C587        H598   1.084       .  S
C588        C589   1.400       .  A
C588        H599   1.084       .  S
C589        C590   1.423       .  A
C589        C594   1.407       .  A
C590        C591   1.413       .  A
C591        C592   1.390       .  A
C591        H600   1.077       .  S
C592        C593   1.399       .  A
C592        H601   1.083       .  S
C593        C594   1.401       .  A
C594        H602   1.084       .  S
C603        C604   1.403       .  A
C603        C608   1.406       .  A
C604        C605   1.399       .  A
C604        H617   1.082       .  S
C605        C606   1.415       .  A
C605        H618   1.078       .  S
C606        C612   1.434   1_565  A
C606        C607   1.422       .  A
C607        C609   1.400       .  A
C607        C608   1.410       .  A
C608        H619   1.083       .  S
C609        C610   1.392   1_565  A
C609        H620   1.084       .  S
C610        C611   1.400       .  A
C610        H621   1.084       .  S
C611        C612   1.422       .  A
C611        C616   1.409       .  A
C612        C613   1.415       .  A
C613        C614   1.398       .  A
C613        H622   1.077       .  S
C614        C615   1.403       .  A
C614        H623   1.082       .  S
C615        C616   1.404       .  A
C616        H624   1.083       .  S
C625        C626   1.398       .  A
C625        C630   1.400       .  A
C626        C627   1.398       .  A
C626        H639   1.084       .  S
C627        C628   1.417       .  A
C627        H640   1.077       .  S
C628        C634   1.432       .  A
C628        C629   1.422       .  A
C629        C631   1.399       .  A
C629        C630   1.405       .  A
C630        H641   1.085       .  S
C631        C632   1.391       .  A
C631        H642   1.084       .  S
C632        C633   1.399       .  A
C632        H643   1.084       .  S
C633        C634   1.424       .  A
C633        C638   1.409       .  A
C634        C635   1.413       .  A
C635        C636   1.396       .  A
C635        H644   1.077       .  S
C636        C637   1.402       .  A
C636        H645   1.083       .  S
C637        C638   1.401       .  A
C638        H646   1.084       .  S
C647        C648   1.400       .  A
C647        C652   1.403       .  A
C648        C649   1.401       .  A
C648        H661   1.083       .  S
C649        C650   1.417       .  A
C649        H662   1.077       .  S
C650        C656   1.432       .  A
C650        C651   1.421       .  A
C651        C653   1.400       .  A
C651        C652   1.404       .  A
C652        H663   1.084       .  S
C653        C654   1.389       .  A
C653        H664   1.084       .  S
C654        C655   1.399       .  A
C654        H665   1.084       .  S
C655        C656   1.424       .  A
C655        C660   1.405       .  A
C656        C657   1.416       .  A
C657        C658   1.398       .  A
C657        H666   1.077       .  S
C658        C659   1.399       .  A
C658        H667   1.083       .  S
C659        C660   1.399       .  A
C660        H668   1.085       .  S
C669        C670   1.399       .  A
C669        C674   1.403       .  A
C670        C671   1.401       .  A
C670        H683   1.083       .  S
C671        C672   1.417       .  A
C671        H684   1.077       .  S
C672        C678   1.431       .  A
C672        C673   1.421       .  A
C673        C675   1.399       .  A
C673        C674   1.401       .  A
C674        H685   1.083       .  S
C675        C676   1.387       .  A
C675        H686   1.084       .  S
C676        C677   1.398       .  A
C676        H687   1.084       .  S
C677        C678   1.424       .  A
C677        C682   1.402       .  A
C678        C679   1.416       .  A
C679        C680   1.398       .  A
C679        H688   1.078       .  S
C680        C681   1.399       .  A
C680        H689   1.083       .  S
C681        C682   1.399       .  A
C682        H690   1.085       .  S
C691        C692   1.400       .  A
C691        C696   1.403       .  A
C692        C693   1.404       .  A
C692        H705   1.083       .  S
C693        C694   1.418       .  A
C693        H706   1.078       .  S
C694        C700   1.435       .  A
C694        C695   1.422       .  A
C695        C697   1.399       .  A
C695        C696   1.403       .  A
C696        H707   1.084       .  S
C697        C698   1.388       .  A
C697        H708   1.084       .  S
C698        C699   1.398       .  A
C698        H709   1.084       .  S
C699        C700   1.424       .  A
C699        C704   1.404       .  A
C700        C701   1.416       .  A
C701        C702   1.401       .  A
C701        H710   1.078       .  S
C702        C703   1.400       .  A
C702        H711   1.083       .  S
C703        C704   1.399       .  A
C704        H712   1.085       .  S
C713        C714   1.405       .  A
C713        C718   1.407       .  A
C714        C715   1.399       .  A
C714        H727   1.081       .  S
C715        C716   1.414       .  A
C715        H728   1.078       .  S
C716        C722   1.436       .  A
C716        C717   1.422       .  A
C717        C719   1.401       .  A
C717        C718   1.412       .  A
C718        H729   1.083       .  S
C719        C720   1.393       .  A
C719        H730   1.084       .  S
C720        C721   1.401   1_655  A
C720        H731   1.084   1_655  S
C721        C722   1.422   1_455  A
C721        C726   1.412       .  A
C722        C723   1.414   1_655  A
C723        C724   1.399       .  A
C723        H732   1.078       .  S
C724        C725   1.404       .  A
C724        H733   1.081       .  S
C725        C726   1.408       .  A
C726        H734   1.083       .  S
C735        C736   1.400       .  A
C735        C740   1.401       .  A
C736        C737   1.399       .  A
C736        H749   1.083       .  S
C737        C738   1.417       .  A
C737        H750   1.077       .  S
C738        C744   1.430       .  A
C738        C739   1.422       .  A
C739        C741   1.399       .  A
C739        C740   1.402       .  A
C740        H751   1.084       .  S
C741        C742   1.388       .  A
C741        H752   1.084       .  S
C742        C743   1.398       .  A
C742        H753   1.084       .  S
C743        C744   1.424       .  A
C743        C748   1.403       .  A
C744        C745   1.416       .  A
C745        C746   1.397       .  A
C745        H754   1.077       .  S
C746        C747   1.399       .  A
C746        H755   1.083       .  S
C747        C748   1.397       .  A
C748        H756   1.085       .  S
C757        C758   1.399       .  A
C757        C762   1.403       .  A
C758        C759   1.400       .  A
C758        H771   1.083       .  S
C759        C760   1.417       .  A
C759        H772   1.077       .  S
C760        C766   1.432       .  A
C760        C761   1.421       .  A
C761        C763   1.400       .  A
C761        C762   1.405       .  A
C762        H773   1.084       .  S
C763        C764   1.390       .  A
C763        H774   1.084       .  S
C764        C765   1.399       .  A
C764        H775   1.084       .  S
C765        C766   1.424       .  A
C765        C770   1.406       .  A
C766        C767   1.415       .  A
C767        C768   1.397       .  A
C767        H776   1.077       .  S
C768        C769   1.400       .  A
C768        H777   1.083       .  S
C769        C770   1.399       .  A
C770        H778   1.085       .  S
C779        C780   1.399       .  A
C779        C784   1.399       .  A
C780        C781   1.398       .  A
C780        H793   1.083       .  S
C781        C782   1.416       .  A
C781        H794   1.077       .  S
C782        C788   1.432       .  A
C782        C783   1.424       .  A
C783        C785   1.399       .  A
C783        C784   1.405       .  A
C784        H795   1.085       .  S
C785        C786   1.390       .  A
C785        H796   1.084       .  S
C786        C787   1.400       .  A
C786        H797   1.084       .  S
C787        C788   1.421       .  A
C787        C792   1.404       .  A
C788        C789   1.416       .  A
C789        C790   1.400       .  A
C789        H798   1.077       .  S
C790        C791   1.401       .  A
C790        H799   1.083       .  S
C791        C792   1.403       .  A
C792        H800   1.084       .  S
C801        C802   1.398       .  A
C801        C806   1.401       .  A
C802        C803   1.397       .  A
C802        H815   1.083       .  S
C803        C804   1.417       .  A
C803        H816   1.077       .  S
C804        C810   1.431       .  A
C804        C805   1.422       .  A
C805        C807   1.400       .  A
C805        C806   1.407       .  A
C806        H817   1.085       .  S
C807        C808   1.392       .  A
C807        H818   1.084       .  S
C808        C809   1.400       .  A
C808        H819   1.084       .  S
C809        C810   1.423       .  A
C809        C814   1.410       .  A
C810        C811   1.412       .  A
C811        C812   1.394       .  A
C811        H820   1.077       .  S
C812        C813   1.403       .  A
C812        H821   1.082       .  S
C813        C814   1.403       .  A
C814        H822   1.084       .  S
C823        C824   1.403       .  A
C823        C828   1.405       .  A
C824        C825   1.397       .  A
C824        H837   1.082       .  S
C825        C826   1.414       .  A
C825        H838   1.077       .  S
C826        C832   1.434   1_565  A
C826        C827   1.422       .  A
C827        C829   1.400       .  A
C827        C828   1.410       .  A
C828        H839   1.083       .  S
C829        C830   1.392   1_565  A
C829        H840   1.084       .  S
C830        C831   1.400       .  A
C830        H841   1.084       .  S
C831        C832   1.422       .  A
C831        C836   1.410       .  A
C832        C833   1.414       .  A
C833        C834   1.398       .  A
C833        H842   1.077       .  S
C834        C835   1.402       .  A
C834        H843   1.082       .  S
C835        C836   1.405       .  A
C836        H844   1.083       .  S
C845        C846   1.400       .  A
C845        C850   1.403       .  A
C846        C847   1.399       .  A
C846        H859   1.082       .  S
C847        C848   1.417       .  A
C847        H860   1.078       .  S
C848        C854   1.430       .  A
C848        C849   1.421       .  A
C849        C851   1.400       .  A
C849        C850   1.401       .  A
C850        H861   1.083       .  S
C851        C852   1.387       .  A
C851        H862   1.084       .  S
C852        C853   1.398       .  A
C852        H863   1.084       .  S
C853        C854   1.424       .  A
C853        C858   1.402       .  A
C854        C855   1.415       .  A
C855        C856   1.396       .  A
C855        H864   1.078       .  S
C856        C857   1.399       .  A
C856        H865   1.083       .  S
C857        C858   1.398       .  A
C858        H866   1.085       .  S
C867        C868   1.400       .  A
C867        C872   1.402       .  A
C868        C869   1.402       .  A
C868        H881   1.083       .  S
C869        C870   1.418       .  A
C869        H882   1.077       .  S
C870        C876   1.432       .  A
C870        C871   1.421       .  A
C871        C873   1.399       .  A
C871        C872   1.401       .  A
C872        H883   1.083       .  S
C873        C874   1.387       .  A
C873        H884   1.084       .  S
C874        C875   1.397       .  A
C874        H885   1.084       .  S
C875        C876   1.424       .  A
C875        C880   1.403       .  A
C876        C877   1.415       .  A
C877        C878   1.399       .  A
C877        H886   1.078       .  S
C878        C879   1.402       .  A
C878        H887   1.083       .  S
C879        C880   1.399       .  A
C880        H888   1.084       .  S
C889        C890   1.400       .  A
C889        C894   1.399       .  A
C890        C891   1.400       .  A
C890        H903   1.083       .  S
C891        C892   1.416       .  A
C891        H904   1.078       .  S
C892        C898   1.430       .  A
C892        C893   1.422       .  A
C893        C895   1.398       .  A
C893        C894   1.401       .  A
C894        H905   1.084       .  S
C895        C896   1.387       .  A
C895        H906   1.084       .  S
C896        C897   1.398       .  A
C896        H907   1.084       .  S
C897        C898   1.423       .  A
C897        C902   1.400       .  A
C898        C899   1.417       .  A
C899        C900   1.400       .  A
C899        H908   1.078       .  S
C900        C901   1.398       .  A
C900        H909   1.083       .  S
C901        C902   1.397       .  A
C902        H910   1.085       .  S
C911        C912   1.399       .  A
C911        C916   1.403       .  A
C912        C913   1.391       .  A
C912        H925   1.083       .  S
C913        C914   1.413       .  A
C913        H926   1.075       .  S
C914        C920   1.427       .  A
C914        C915   1.423       .  A
C915        C917   1.401       .  A
C915        C916   1.410       .  A
C916        H927   1.084       .  S
C917        C918   1.393       .  A
C917        H928   1.084       .  S
C918        C919   1.401       .  A
C918        H929   1.084       .  S
C919        C920   1.422       .  A
C919        C924   1.407       .  A
C920        C921   1.415       .  A
C921        C922   1.392       .  A
C921        H930   1.075       .  S
C922        C923   1.395       .  A
C922        H931   1.084       .  S
C923        C924   1.401       .  A
C924        H932   1.084       .  S
C933        C934   1.403   1_556  A
C933        C938   1.406       .  A
C934        C935   1.396       .  A
C934        H947   1.081       .  S
C935        C936   1.414   1_554  A
C935        H948   1.075       .  S
C936        C942   1.431       .  A
C936        C937   1.421       .  A
C937        C939   1.401       .  A
C937        C938   1.408       .  A
C938        H949   1.082       .  S
C939        C940   1.392       .  A
C939        H950   1.084       .  S
C940        C941   1.400       .  A
C940        H951   1.084       .  S
C941        C942   1.422       .  A
C941        C946   1.409       .  A
C942        C943   1.413   1_556  A
C943        C944   1.395       .  A
C943        H952   1.075       .  S
C944        C945   1.403   1_554  A
C944        H953   1.081       .  S
C945        C946   1.405       .  A
C946        H954   1.082       .  S
C955        C956   1.400       .  A
C955        C960   1.400       .  A
C956        C957   1.398       .  A
C956        H969   1.083       .  S
C957        C958   1.416       .  A
C957        H970   1.077       .  S
C958        C964   1.433       .  A
C958        C959   1.424       .  A
C959        C961   1.399       .  A
C959        C960   1.406       .  A
C960        H971   1.085       .  S
C961        C962   1.390       .  A
C961        H972   1.084       .  S
C962        C963   1.400       .  A
C962        H973   1.084       .  S
C963        C964   1.422       .  A
C963        C968   1.406       .  A
C964        C965   1.416       .  A
C965        C966   1.399       .  A
C965        H974   1.077       .  S
C966        C967   1.400       .  A
C966        H975   1.083       .  S
C967        C968   1.402       .  A
C968        H976   1.084       .  S
C977        C978   1.399       .  A
C977        C982   1.402       .  A
C978        C979   1.396       .  A
C978        H991   1.083       .  S
C979        C980   1.416       .  A
C979        H992   1.078       .  S
C980        C986   1.431       .  A
C980        C981   1.422       .  A
C981        C983   1.400       .  A
C981        C982   1.406       .  A
C982        H993   1.085       .  S
C983        C984   1.392       .  A
C983        H994   1.084       .  S
C984        C985   1.400       .  A
C984        H995   1.084       .  S
C985        C986   1.424       .  A
C985        C990   1.410       .  A
C986        C987   1.413       .  A
C987        C988   1.394       .  A
C987        H996   1.078       .  S
C988        C989   1.400       .  A
C988        H997   1.083       .  S
C989        C990   1.402       .  A
C990        H998   1.084       .  S
C999       C1000   1.398       .  A
C999       C1004   1.397       .  A
C1000      C1001   1.398       .  A
C1000      H1013   1.083       .  S
C1001      C1002   1.416       .  A
C1001      H1014   1.078       .  S
C1002      C1008   1.431       .  A
C1002      C1003   1.424       .  A
C1003      C1005   1.398       .  A
C1003      C1004   1.403       .  A
C1004      H1015   1.085       .  S
C1005      C1006   1.388       .  A
C1005      H1016   1.084       .  S
C1006      C1007   1.399       .  A
C1006      H1017   1.084       .  S
C1007      C1008   1.421       .  A
C1007      C1012   1.403       .  A
C1008      C1009   1.417       .  A
C1009      C1010   1.401       .  A
C1009      H1018   1.077       .  S
C1010      C1011   1.400       .  A
C1010      H1019   1.083       .  S
C1011      C1012   1.402       .  A
C1012      H1020   1.084       .  S
C1021      C1022   1.402       .  A
C1021      C1026   1.404       .  A
C1022      C1023   1.389       .  A
C1022      H1035   1.081       .  S
C1023      C1024   1.410       .  A
C1023      H1036   1.077       .  S
C1024      C1030   1.427       .  A
C1024      C1025   1.423       .  A
C1025      C1027   1.401       .  A
C1025      C1026   1.411       .  A
C1026      H1037   1.084       .  S
C1027      C1028   1.394       .  A
C1027      H1038   1.084       .  S
C1028      C1029   1.401       .  A
C1028      H1039   1.084       .  S
C1029      C1030   1.422       .  A
C1029      C1034   1.409       .  A
C1030      C1031   1.414       .  A
C1031      C1032   1.391       .  A
C1031      H1040   1.077       .  S
C1032      C1033   1.397       .  A
C1032      H1041   1.083       .  S
C1033      C1034   1.403       .  A
C1034      H1042   1.084       .  S
C1043      C1044   1.402   1_554  A
C1043      C1048   1.404       .  A
C1044      C1045   1.400       .  A
C1044      H1057   1.082       .  S
C1045      C1046   1.416   1_556  A
C1045      H1058   1.077       .  S
C1046      C1052   1.435       .  A
C1046      C1047   1.422       .  A
C1047      C1049   1.400       .  A
C1047      C1048   1.408       .  A
C1048      H1059   1.083       .  S
C1049      C1050   1.391       .  A
C1049      H1060   1.084       .  S
C1050      C1051   1.400       .  A
C1050      H1061   1.084       .  S
C1051      C1052   1.423       .  A
C1051      C1056   1.408       .  A
C1052      C1053   1.415   1_554  A
C1053      C1054   1.400       .  A
C1053      H1062   1.077       .  S
C1054      C1055   1.402   1_556  A
C1054      H1063   1.082       .  S
C1055      C1056   1.404       .  A
C1056      H1064   1.083       .  S
C1065      C1066   1.402       .  A
C1065      C1070   1.404       .  A
C1066      C1067   1.391       .  A
C1066      H1079   1.082       .  S
C1067      C1068   1.411       .  A
C1067      H1080   1.076       .  S
C1068      C1074   1.430       .  A
C1068      C1069   1.424       .  A
C1069      C1071   1.401       .  A
C1069      C1070   1.413       .  A
C1070      H1081   1.083       .  S
C1071      C1072   1.394       .  A
C1071      H1082   1.083       .  S
C1072      C1073   1.401       .  A
C1072      H1083   1.084       .  S
C1073      C1074   1.421       .  A
C1073      C1078   1.409       .  A
C1074      C1075   1.416       .  A
C1075      C1076   1.394       .  A
C1075      H1084   1.077       .  S
C1076      C1077   1.399       .  A
C1076      H1085   1.083       .  S
C1077      C1078   1.404       .  A
C1078      H1086   1.085       .  S
C1087      C1088   1.397       .  A
C1087      C1092   1.402       .  A
C1088      C1089   1.393       .  A
C1088      H1101   1.083       .  S
C1089      C1090   1.416       .  A
C1089      H1102   1.076       .  S
C1090      C1096   1.430       .  A
C1090      C1091   1.422       .  A
C1091      C1093   1.401       .  A
C1091      C1092   1.409       .  A
C1092      H1103   1.085       .  S
C1093      C1094   1.394       .  A
C1093      H1104   1.084       .  S
C1094      C1095   1.401       .  A
C1094      H1105   1.083       .  S
C1095      C1096   1.423       .  A
C1095      C1100   1.413       .  A
C1096      C1097   1.410       .  A
C1097      C1098   1.391       .  A
C1097      H1106   1.076       .  S
C1098      C1099   1.404       .  A
C1098      H1107   1.081       .  S
C1099      C1100   1.405       .  A
C1100      H1108   1.083       .  S
C1109      C1110   1.403       .  A
C1109      C1114   1.402       .  A
C1110      C1111   1.392       .  A
C1110      H1123   1.082       .  S
C1111      C1112   1.412       .  A
C1111      H1124   1.076       .  S
C1112      C1118   1.429       .  A
C1112      C1113   1.423       .  A
C1113      C1115   1.400       .  A
C1113      C1114   1.409       .  A
C1114      H1125   1.083       .  S
C1115      C1116   1.392       .  A
C1115      H1126   1.084       .  S
C1116      C1117   1.400       .  A
C1116      H1127   1.084       .  S
C1117      C1118   1.422       .  A
C1117      C1122   1.406       .  A
C1118      C1119   1.416       .  A
C1119      C1120   1.394       .  A
C1119      H1128   1.076       .  S
C1120      C1121   1.399       .  A
C1120      H1129   1.083       .  S
C1121      C1122   1.401       .  A
C1122      H1130   1.085       .  S
C1131      C1132   1.401       .  A
C1131      C1136   1.404       .  A
C1132      C1133   1.392       .  A
C1132      H1145   1.082       .  S
C1133      C1134   1.412       .  A
C1133      H1146   1.076       .  S
C1134      C1140   1.430       .  A
C1134      C1135   1.423       .  A
C1135      C1137   1.401       .  A
C1135      C1136   1.412       .  A
C1136      H1147   1.084       .  S
C1137      C1138   1.394       .  A
C1137      H1148   1.083       .  S
C1138      C1139   1.401       .  A
C1138      H1149   1.084       .  S
C1139      C1140   1.422       .  A
C1139      C1144   1.410       .  A
C1140      C1141   1.414       .  A
C1141      C1142   1.393       .  A
C1141      H1150   1.077       .  S
C1142      C1143   1.400       .  A
C1142      H1151   1.083       .  S
C1143      C1144   1.404       .  A
C1144      H1152   1.084       .  S
C1153      C1154   1.402   1_554  A
C1153      C1158   1.404       .  A
C1154      C1155   1.399       .  A
C1154      H1167   1.082       .  S
C1155      C1156   1.415       .  A
C1155      H1168   1.077       .  S
C1156      C1162   1.434       .  A
C1156      C1157   1.422   1_556  A
C1157      C1159   1.400       .  A
C1157      C1158   1.408       .  A
C1158      H1169   1.083       .  S
C1159      C1160   1.391       .  A
C1159      H1170   1.084       .  S
C1160      C1161   1.400       .  A
C1160      H1171   1.084       .  S
C1161      C1162   1.423   1_554  A
C1161      C1166   1.409       .  A
C1162      C1163   1.414       .  A
C1163      C1164   1.398       .  A
C1163      H1172   1.078       .  S
C1164      C1165   1.402   1_556  A
C1164      H1173   1.082       .  S
C1165      C1166   1.404       .  A
C1166      H1174   1.083       .  S
C1175      C1176   1.401       .  A
C1175      C1180   1.404       .  A
C1176      C1177   1.402       .  A
C1176      H1189   1.083       .  S
C1177      C1178   1.417       .  A
C1177      H1190   1.078       .  S
C1178      C1184   1.434       .  A
C1178      C1179   1.422       .  A
C1179      C1181   1.400       .  A
C1179      C1180   1.405       .  A
C1180      H1191   1.083       .  S
C1181      C1182   1.389       .  A
C1181      H1192   1.084       .  S
C1182      C1183   1.399       .  A
C1182      H1193   1.084       .  S
C1183      C1184   1.423       .  A
C1183      C1188   1.405       .  A
C1184      C1185   1.416       .  A
C1185      C1186   1.400       .  A
C1185      H1194   1.078       .  S
C1186      C1187   1.401       .  A
C1186      H1195   1.083       .  S
C1187      C1188   1.400       .  A
C1188      H1196   1.084       .  S
C1197      C1198   1.400       .  A
C1197      C1202   1.403       .  A
C1198      C1199   1.396       .  A
C1198      H1211   1.083       .  S
C1199      C1200   1.414       .  A
C1199      H1212   1.077       .  S
C1200      C1206   1.432       .  A
C1200      C1201   1.423       .  A
C1201      C1203   1.401       .  A
C1201      C1202   1.409       .  A
C1202      H1213   1.084       .  S
C1203      C1204   1.393       .  A
C1203      H1214   1.084       .  S
C1204      C1205   1.400       .  A
C1204      H1215   1.084       .  S
C1205      C1206   1.423       .  A
C1205      C1210   1.409       .  A
C1206      C1207   1.415       .  A
C1207      C1208   1.396       .  A
C1207      H1216   1.077       .  S
C1208      C1209   1.399       .  A
C1208      H1217   1.083       .  S
C1209      C1210   1.403       .  A
C1210      H1218   1.085       .  S
C1219      C1220   1.401       .  A
C1219      C1224   1.402       .  A
C1220      C1221   1.389       .  A
C1220      H1233   1.082       .  S
C1221      C1222   1.411       .  A
C1221      H1234   1.076       .  S
C1222      C1228   1.427       .  A
C1222      C1223   1.423       .  A
C1223      C1225   1.400       .  A
C1223      C1224   1.409       .  A
C1224      H1235   1.084       .  S
C1225      C1226   1.392       .  A
C1225      H1236   1.083       .  S
C1226      C1227   1.400       .  A
C1226      H1237   1.084       .  S
C1227      C1228   1.422       .  A
C1227      C1232   1.406       .  A
C1228      C1229   1.414       .  A
C1229      C1230   1.391       .  A
C1229      H1238   1.076       .  S
C1230      C1231   1.398       .  A
C1230      H1239   1.083       .  S
C1231      C1232   1.402       .  A
C1232      H1240   1.085       .  S
C1241      C1242   1.401       .  A
C1241      C1246   1.400       .  A
C1242      C1243   1.400       .  A
C1242      H1255   1.083       .  S
C1243      C1244   1.415       .  A
C1243      H1256   1.078       .  S
C1244      C1250   1.433       .  A
C1244      C1245   1.424       .  A
C1245      C1247   1.398       .  A
C1245      C1246   1.403       .  A
C1246      H1257   1.085       .  S
C1247      C1248   1.387       .  A
C1247      H1258   1.084       .  S
C1248      C1249   1.399       .  A
C1248      H1259   1.084       .  S
C1249      C1250   1.421       .  A
C1249      C1254   1.401       .  A
C1250      C1251   1.418       .  A
C1251      C1252   1.402       .  A
C1251      H1260   1.077       .  S
C1252      C1253   1.400       .  A
C1252      H1261   1.083       .  S
C1253      C1254   1.402       .  A
C1254      H1262   1.083       .  S
C1263      C1264   1.403       .  A
C1263      C1268   1.403   1_554  A
C1264      C1265   1.397       .  A
C1264      H1277   1.081       .  S
C1265      C1266   1.414       .  A
C1265      H1278   1.077       .  S
C1266      C1272   1.431       .  A
C1266      C1267   1.422   1_554  A
C1267      C1269   1.399       .  A
C1267      C1268   1.406       .  A
C1268      H1279   1.083       .  S
C1269      C1270   1.390       .  A
C1269      H1280   1.084       .  S
C1270      C1271   1.400       .  A
C1270      H1281   1.084       .  S
C1271      C1272   1.421   1_556  A
C1271      C1276   1.405       .  A
C1272      C1273   1.415       .  A
C1273      C1274   1.398       .  A
C1273      H1282   1.077       .  S
C1274      C1275   1.403       .  A
C1274      H1283   1.082       .  S
C1275      C1276   1.404   1_554  A
C1276      H1284   1.082       .  S
C1285      C1286   1.399       .  A
C1285      C1290   1.401       .  A
C1286      C1287   1.394       .  A
C1286      H1299   1.084       .  S
C1287      C1288   1.415       .  A
C1287      H1300   1.077       .  S
C1288      C1294   1.429       .  A
C1288      C1289   1.423       .  A
C1289      C1291   1.400       .  A
C1289      C1290   1.407       .  A
C1290      H1301   1.085       .  S
C1291      C1292   1.392       .  A
C1291      H1302   1.084       .  S
C1292      C1293   1.400       .  A
C1292      H1303   1.084       .  S
C1293      C1294   1.423       .  A
C1293      C1298   1.408       .  A
C1294      C1295   1.414       .  A
C1295      C1296   1.394       .  A
C1295      H1304   1.077       .  S
C1296      C1297   1.399       .  A
C1296      H1305   1.083       .  S
C1297      C1298   1.401       .  A
C1298      H1306   1.084       .  S
C1307      C1308   1.398       .  A
C1307      C1312   1.401       .  A
C1308      C1309   1.391       .  A
C1308      H1321   1.084       .  S
C1309      C1310   1.413       .  A
C1309      H1322   1.076       .  S
C1310      C1316   1.427       .  A
C1310      C1311   1.423       .  A
C1311      C1313   1.400       .  A
C1311      C1312   1.408       .  A
C1312      H1323   1.084       .  S
C1313      C1314   1.392       .  A
C1313      H1324   1.084       .  S
C1314      C1315   1.400       .  A
C1314      H1325   1.084       .  S
C1315      C1316   1.423       .  A
C1315      C1320   1.406       .  A
C1316      C1317   1.415       .  A
C1317      C1318   1.391       .  A
C1317      H1326   1.076       .  S
C1318      C1319   1.397       .  A
C1318      H1327   1.084       .  S
C1319      C1320   1.401       .  A
C1320      H1328   1.085       .  S
