geometry optimzed in LAMMPS
_audit_creation_date              2020-11-30 
_audit_creation_method            'lammps2cif' 
_symmetry_space_group_name_H-M    'P1' 
_symmetry_Int_Tables_number       1 
_symmetry_cell_setting            triclinic 
loop_ 
_symmetry_equiv_pos_as_xyz 
  x,y,z 
_cell_length_a                    27.401765274030943 
_cell_length_b                    27.40139633369779 
_cell_length_c                    26.312155835223262 
_cell_angle_alpha                 89.99703326832714 
_cell_angle_beta                  89.9953754787909 
_cell_angle_gamma                 89.99125681993065 
loop_ 
_atom_site_label 
_atom_site_type_symbol 
_atom_site_fract_x 
_atom_site_fract_y 
_atom_site_fract_z 
_atom_site_charge 
C1          C  0.35502767  0.50218543  0.38130455     0.45430
N2          N  0.39775017  0.48020938  0.44516233     0.04320
C3          C  0.04556676  0.12518753  0.09544275    -0.03550
H4          H  0.08359773  0.13022958  0.39645645     0.09820
C5          C  0.12519012  0.45363398  0.40612060    -0.03900
Co6        Co  0.43936785  0.06579152  0.50078640     0.74180
N7          N  0.02833805  0.09909556  0.44531775    -0.23080
Co8        Co  0.06578229  0.05984009  0.50078451     0.74070
C9          C  0.14417778  0.49704201  0.38129744     0.45540
N10         N  0.01902353  0.39774976  0.44516234     0.03940
N11         N  0.10146555  0.01901259  0.44516190     0.04050
N12         N  0.46290119  0.12818654  0.09433706    -0.43930
H13         H  0.36897032  0.08361632  0.39646568     0.09800
N14         N  0.48019514  0.10146914  0.44516415     0.04330
N15         N  0.10146467  0.01900779  0.05640484     0.04070
C16         C  0.14418952  0.99703154  0.12026093     0.45680
N17         N  0.47088064  0.40012485  0.44531686    -0.22540
C18         C  0.37402613  0.04558313  0.09545282    -0.03460
N19         N  0.37103406  0.46292517  0.40723550    -0.43640
N20         N  0.12818205  0.03629188  0.09433077    -0.43870
C21         C  0.35503946  0.00217501  0.12027662     0.45450
N22         N  0.48019095  0.10146751  0.05640777     0.04320
N23         N  0.47087395  0.40012175  0.05625151    -0.22560
N24         N  0.40011930  0.02835267  0.44531874    -0.23050
N25         N  0.01901684  0.39774815  0.05640599     0.03960
H26         H  0.41561346  0.36898774  0.10511188     0.09850
H27         H  0.13023971  0.41560100  0.10510779     0.09880
N28         N  0.02833384  0.09909242  0.05625242    -0.23100
N29         N  0.09909522  0.47086950  0.44531714    -0.22710
N30         N  0.39774616  0.48020467  0.05640523     0.04320
C31         C  0.50216664  0.14418291  0.38129932     0.45720
C32         C  0.45364827  0.37402978  0.40612630    -0.03970
N33         N  0.09909236  0.47086464  0.05625360    -0.22710
H34         H  0.13023436  0.41561019  0.39645349     0.09870
N35         N  0.46290785  0.12818477  0.40723184    -0.43940
H36         H  0.41562529  0.36898906  0.39646418     0.09850
C37         C  0.99704436  0.35503444  0.12027048     0.45550
C38         C  0.37401903  0.04559143  0.40612885    -0.03460
Co39       Co  0.43343098  0.43937717  0.00078373     0.73820
N40         N  0.03631383  0.37103071  0.40723329    -0.43650
C41         C  0.00215787  0.14418498  0.12026592     0.45820
N42         N  0.37103348  0.46291662  0.09433835    -0.43640
Co43       Co  0.05984539  0.43342575  0.00078480     0.73890
C44         C  0.12519130  0.45362588  0.09544444    -0.03970
C45         C  0.04557401  0.12518940  0.40612257    -0.03530
N46         N  0.40011963  0.02834771  0.05625524    -0.23060
N47         N  0.12817707  0.03630064  0.40722790    -0.43820
H48         H  0.08358988  0.13022831  0.10510426     0.09830
C49         C  0.45363734  0.37402794  0.09544644    -0.03950
Cl50       Cl  0.99960877  0.99960864  0.00078493    -0.46950
C51         C  0.49705743  0.35503234  0.38130383     0.45580
H52         H  0.36898218  0.08360689  0.10512023     0.09790
N53         N  0.03630351  0.37103258  0.09433861    -0.43660
C54         C  0.49983139  0.27431289  0.25078762     0.03540
C55         C  0.49938140  0.22490442  0.25078214     0.03540
C56         C  0.27430866  0.49939030  0.25078926     0.03540
C57         C  0.22490036  0.49982649  0.25078033     0.03540
C58         C  0.17337775  0.49896200  0.16548738    -0.10210
C59         C  0.19725683  0.49970841  0.20395440    -0.11860
C60         C  0.19724335  0.49971743  0.29759832    -0.10300
C61         C  0.17336509  0.49897477  0.33606774    -0.11860
C62         C  0.30196566  0.49949946  0.20397127    -0.10300
C63         C  0.32584390  0.50024228  0.16550185    -0.11860
C64         C  0.32583131  0.50025505  0.33608217    -0.10300
C65         C  0.30195220  0.49950848  0.29761517    -0.11860
C66         C  0.49948466  0.19725829  0.20395788    -0.10300
C67         C  0.50022412  0.17337957  0.16548999    -0.11860
C68         C  0.49949208  0.19724963  0.29760134    -0.10300
C69         C  0.50023495  0.17337148  0.33607057    -0.11860
C70         C  0.49897574  0.32584587  0.16549924    -0.10300
C71         C  0.49971950  0.30196770  0.20396844    -0.11860
C72         C  0.49899129  0.32583772  0.33607980    -0.10300
C73         C  0.49972956  0.30195900  0.29761188    -0.11860
C74         C  0.35502767  0.50218543  0.88130455     0.45430
N75         N  0.39775017  0.48020937  0.94516232     0.04320
C76         C  0.04556677  0.12518753  0.59544275    -0.03550
H77         H  0.08359773  0.13022958  0.89645645     0.09820
C78         C  0.12519012  0.45363398  0.90612060    -0.03900
Co79       Co  0.43936785  0.06579153  0.00078640     0.74180
N80         N  0.02833804  0.09909556  0.94531775    -0.23080
Co81       Co  0.06578229  0.05984010  0.00078451     0.74070
C82         C  0.14417778  0.49704201  0.88129744     0.45540
N83         N  0.01902353  0.39774976  0.94516234     0.03940
N84         N  0.10146555  0.01901259  0.94516190     0.04050
N85         N  0.46290119  0.12818653  0.59433706    -0.43930
H86         H  0.36897033  0.08361633  0.89646568     0.09800
N87         N  0.48019515  0.10146914  0.94516415     0.04330
N88         N  0.10146468  0.01900779  0.55640484     0.04070
C89         C  0.14418952  0.99703154  0.62026093     0.45680
N90         N  0.47088064  0.40012485  0.94531686    -0.22540
C91         C  0.37402613  0.04558313  0.59545282    -0.03460
N92         N  0.37103406  0.46292517  0.90723550    -0.43640
N93         N  0.12818205  0.03629188  0.59433077    -0.43870
C94         C  0.35503946  0.00217501  0.62027662     0.45450
N95         N  0.48019095  0.10146751  0.55640776     0.04320
N96         N  0.47087395  0.40012175  0.55625151    -0.22560
N97         N  0.40011930  0.02835267  0.94531874    -0.23050
N98         N  0.01901684  0.39774815  0.55640599     0.03960
H99         H  0.41561346  0.36898774  0.60511188     0.09850
H100        H  0.13023971  0.41560100  0.60510779     0.09880
N101        N  0.02833384  0.09909242  0.55625242    -0.23100
N102        N  0.09909522  0.47086950  0.94531714    -0.22710
N103        N  0.39774616  0.48020468  0.55640523     0.04320
C104        C  0.50216664  0.14418291  0.88129932     0.45720
C105        C  0.45364827  0.37402978  0.90612630    -0.03970
N106        N  0.09909236  0.47086464  0.55625360    -0.22710
H107        H  0.13023436  0.41561019  0.89645349     0.09870
N108        N  0.46290785  0.12818477  0.90723184    -0.43940
H109        H  0.41562529  0.36898906  0.89646418     0.09850
C110        C  0.99704436  0.35503444  0.62027048     0.45550
C111        C  0.37401903  0.04559144  0.90612885    -0.03460
Co112      Co  0.43343098  0.43937717  0.50078373     0.73820
N113        N  0.03631383  0.37103071  0.90723329    -0.43650
C114        C  0.00215787  0.14418497  0.62026592     0.45820
N115        N  0.37103348  0.46291662  0.59433836    -0.43640
Co116      Co  0.05984539  0.43342575  0.50078480     0.73890
C117        C  0.12519130  0.45362589  0.59544444    -0.03970
C118        C  0.04557401  0.12518940  0.90612257    -0.03530
N119        N  0.40011963  0.02834771  0.55625524    -0.23060
N120        N  0.12817707  0.03630064  0.90722790    -0.43820
H121        H  0.08358988  0.13022831  0.60510426     0.09830
C122        C  0.45363734  0.37402794  0.59544644    -0.03950
Cl123      Cl  0.99960878  0.99960864  0.50078493    -0.46950
C124        C  0.49705743  0.35503233  0.88130383     0.45580
H125        H  0.36898218  0.08360689  0.60512023     0.09790
N126        N  0.03630351  0.37103258  0.59433861    -0.43660
C127        C  0.49983139  0.27431289  0.75078762     0.03540
C128        C  0.49938140  0.22490442  0.75078213     0.03540
C129        C  0.27430865  0.49939030  0.75078926     0.03540
C130        C  0.22490035  0.49982649  0.75078033     0.03540
C131        C  0.17337775  0.49896200  0.66548738    -0.10210
C132        C  0.19725683  0.49970841  0.70395440    -0.11860
C133        C  0.19724334  0.49971743  0.79759832    -0.10300
C134        C  0.17336509  0.49897477  0.83606774    -0.11860
C135        C  0.30196566  0.49949947  0.70397127    -0.10300
C136        C  0.32584390  0.50024228  0.66550185    -0.11860
C137        C  0.32583130  0.50025505  0.83608217    -0.10300
C138        C  0.30195219  0.49950848  0.79761517    -0.11860
C139        C  0.49948466  0.19725829  0.70395788    -0.10300
C140        C  0.50022412  0.17337957  0.66548999    -0.11860
C141        C  0.49949208  0.19724963  0.79760134    -0.10300
C142        C  0.50023495  0.17337148  0.83607057    -0.11860
C143        C  0.49897574  0.32584587  0.66549924    -0.10300
C144        C  0.49971950  0.30196770  0.70396844    -0.11860
C145        C  0.49899130  0.32583772  0.83607980    -0.10300
C146        C  0.49972956  0.30195900  0.79761188    -0.11860
C147        C  0.35502800  0.00218560  0.38130898     0.45430
N148        N  0.39775285  0.98020945  0.44516508     0.04320
C149        C  0.04556073  0.62518753  0.09544327    -0.03550
H150        H  0.08359555  0.63022952  0.39645782     0.09820
C151        C  0.12519151  0.95363404  0.40611720    -0.03900
Co152      Co  0.43936357  0.56579154  0.50078481     0.74180
N153        N  0.02833502  0.59909552  0.44531813    -0.23080
Co154      Co  0.06577800  0.55984009  0.50078588     0.74070
C155        C  0.14417826  0.99704211  0.38129340     0.45540
N156        N  0.01902650  0.89774975  0.44516203     0.03940
N157        N  0.10146283  0.51901257  0.44516434     0.04050
N158        N  0.46289517  0.62818665  0.09433633    -0.43930
H159        H  0.36896931  0.58361618  0.39646167     0.09800
N160        N  0.48019213  0.60146915  0.44516363     0.04330
N161        N  0.10145884  0.51900787  0.05640728     0.04070
C162        C  0.14418141  0.49703172  0.12026498     0.45680
N163        N  0.47088362  0.90012491  0.44531746    -0.22540
C164        C  0.37401883  0.54558322  0.09544903    -0.03460
N165        N  0.37103549  0.96292530  0.40723917    -0.43640
N166        N  0.12817500  0.53629202  0.09433409    -0.43870
C167        C  0.35503120  0.50217514  0.12027216     0.45450
N168        N  0.48018545  0.60146755  0.05640729     0.04320
N169        N  0.47087941  0.90012175  0.05625205    -0.22560
N170        N  0.40011663  0.52835261  0.44531598    -0.23050
N171        N  0.01902230  0.89774810  0.05640573     0.03960
H172        H  0.41561955  0.86898785  0.10511317     0.09850
H173        H  0.13024714  0.91560085  0.10510414     0.09880
N174        N  0.02832833  0.59909243  0.05625275    -0.23100
N175        N  0.09909793  0.97086952  0.44531470    -0.22710
N176        N  0.39775203  0.98020464  0.05640799     0.04320
C177        C  0.50216468  0.64418286  0.38129918     0.45720
C178        C  0.45365056  0.87402986  0.40612717    -0.03970
N179        N  0.09909819  0.97086456  0.05625115    -0.22710
H180        H  0.13023546  0.91561026  0.39644986     0.09870
N181        N  0.46290550  0.62818474  0.40723100    -0.43940
H182        H  0.41562741  0.86898915  0.39646576     0.09850
C183        C  0.99705054  0.85503440  0.12027050     0.45550
C184        C  0.37401773  0.54559131  0.40612508    -0.03460
Co185      Co  0.43343524  0.93937721  0.00078535     0.73820
N186        N  0.03631613  0.87103071  0.40723267    -0.43650
C187        C  0.00215161  0.64418503  0.12026575     0.45820
N188        N  0.37104061  0.96291653  0.09434203    -0.43640
Co189      Co  0.05984965  0.93342571  0.00078348     0.73890
C190        C  0.12519846  0.95362575  0.09544102    -0.03970
C191        C  0.04557167  0.62518934  0.40612323    -0.03530
N192        N  0.40011374  0.52834774  0.05625247    -0.23060
N193        N  0.12817552  0.53630058  0.40723120    -0.43820
H194        H  0.08358372  0.63022825  0.10510535     0.09830
C195        C  0.45364330  0.87402796  0.09544715    -0.03950
Cl196      Cl  0.99960449  0.49960864  0.00078481    -0.46950
C197        C  0.49705933  0.85503237  0.38130389     0.45580
H198        H  0.36897458  0.58360699  0.10511618     0.09790
N199        N  0.03630946  0.87103245  0.09433810    -0.43660
C200        C  0.49983288  0.77431287  0.25078765     0.03540
C201        C  0.49937982  0.72490443  0.25078206     0.03540
C202        C  0.27431295  0.99939029  0.25079091     0.03540
C203        C  0.22490465  0.99982645  0.25077899     0.03540
C204        C  0.17338556  0.99896182  0.16548362    -0.10210
C205        C  0.19726349  0.99970828  0.20395146    -0.11860
C206        C  0.19724527  0.99971746  0.29759538    -0.10300
C207        C  0.17336588  0.99897484  0.33606400    -0.11860
C208        C  0.30197235  0.99949938  0.20397454    -0.10300
C209        C  0.32585180  0.00024217  0.16550598    -0.11860
C210        C  0.32583201  0.00025520  0.33608628    -0.10300
C211        C  0.30195409  0.99950858  0.29761844    -0.11860
C212        C  0.49948029  0.69725838  0.20395774    -0.10300
C213        C  0.50021789  0.67337967  0.16548979    -0.11860
C214        C  0.49949035  0.69724957  0.29760120    -0.10300
C215        C  0.50023345  0.67337140  0.33607040    -0.11860
C216        C  0.49898188  0.82584586  0.16549926    -0.10300
C217        C  0.49972377  0.80196772  0.20396850    -0.11860
C218        C  0.49899272  0.82583771  0.33607984    -0.10300
C219        C  0.49973120  0.80195896  0.29761194    -0.11860
C220        C  0.35502800  0.00218560  0.88130898     0.45430
N221        N  0.39775285  0.98020945  0.94516508     0.04320
C222        C  0.04556074  0.62518753  0.59544326    -0.03550
H223        H  0.08359555  0.63022952  0.89645782     0.09820
C224        C  0.12519151  0.95363404  0.90611720    -0.03900
Co225      Co  0.43936357  0.56579154  0.00078481     0.74180
N226        N  0.02833502  0.59909552  0.94531813    -0.23080
Co227      Co  0.06577800  0.55984009  0.00078588     0.74070
C228        C  0.14417826  0.99704211  0.88129340     0.45540
N229        N  0.01902650  0.89774975  0.94516203     0.03940
N230        N  0.10146283  0.51901257  0.94516434     0.04050
N231        N  0.46289518  0.62818665  0.59433633    -0.43930
H232        H  0.36896931  0.58361618  0.89646167     0.09800
N233        N  0.48019213  0.60146914  0.94516363     0.04330
N234        N  0.10145884  0.51900787  0.55640728     0.04070
C235        C  0.14418141  0.49703173  0.62026498     0.45680
N236        N  0.47088362  0.90012492  0.94531746    -0.22540
C237        C  0.37401883  0.54558322  0.59544903    -0.03460
N238        N  0.37103550  0.96292530  0.90723917    -0.43640
N239        N  0.12817500  0.53629203  0.59433409    -0.43870
C240        C  0.35503120  0.50217514  0.62027216     0.45450
N241        N  0.48018545  0.60146755  0.55640729     0.04320
N242        N  0.47087941  0.90012174  0.55625205    -0.22560
N243        N  0.40011663  0.52835261  0.94531598    -0.23050
N244        N  0.01902230  0.89774810  0.55640573     0.03960
H245        H  0.41561955  0.86898785  0.60511317     0.09850
H246        H  0.13024714  0.91560084  0.60510414     0.09880
N247        N  0.02832833  0.59909243  0.55625275    -0.23100
N248        N  0.09909792  0.97086952  0.94531470    -0.22710
N249        N  0.39775203  0.98020464  0.55640799     0.04320
C250        C  0.50216468  0.64418286  0.88129918     0.45720
C251        C  0.45365056  0.87402987  0.90612717    -0.03970
N252        N  0.09909819  0.97086456  0.55625115    -0.22710
H253        H  0.13023546  0.91561027  0.89644986     0.09870
N254        N  0.46290550  0.62818474  0.90723100    -0.43940
H255        H  0.41562741  0.86898915  0.89646576     0.09850
C256        C  0.99705055  0.85503440  0.62027051     0.45550
C257        C  0.37401773  0.54559131  0.90612508    -0.03460
Co258      Co  0.43343524  0.93937721  0.50078536     0.73820
N259        N  0.03631613  0.87103071  0.90723267    -0.43650
C260        C  0.00215161  0.64418503  0.62026575     0.45820
N261        N  0.37104061  0.96291653  0.59434203    -0.43640
Co262      Co  0.05984965  0.93342570  0.50078348     0.73890
C263        C  0.12519846  0.95362575  0.59544102    -0.03970
C264        C  0.04557167  0.62518933  0.90612324    -0.03530
N265        N  0.40011374  0.52834775  0.55625247    -0.23060
N266        N  0.12817552  0.53630057  0.90723120    -0.43820
H267        H  0.08358372  0.63022825  0.60510535     0.09830
C268        C  0.45364330  0.87402796  0.59544716    -0.03950
Cl269      Cl  0.99960449  0.49960865  0.50078481    -0.46950
C270        C  0.49705934  0.85503237  0.88130389     0.45580
H271        H  0.36897458  0.58360700  0.60511618     0.09790
N272        N  0.03630946  0.87103245  0.59433810    -0.43660
C273        C  0.49983288  0.77431287  0.75078765     0.03540
C274        C  0.49937982  0.72490443  0.75078206     0.03540
C275        C  0.27431295  0.99939029  0.75079091     0.03540
C276        C  0.22490465  0.99982645  0.75077899     0.03540
C277        C  0.17338556  0.99896182  0.66548362    -0.10210
C278        C  0.19726349  0.99970828  0.70395146    -0.11860
C279        C  0.19724527  0.99971746  0.79759539    -0.10300
C280        C  0.17336588  0.99897484  0.83606400    -0.11860
C281        C  0.30197235  0.99949938  0.70397455    -0.10300
C282        C  0.32585180  0.00024216  0.66550598    -0.11860
C283        C  0.32583201  0.00025520  0.83608628    -0.10300
C284        C  0.30195409  0.99950858  0.79761844    -0.11860
C285        C  0.49948029  0.69725838  0.70395774    -0.10300
C286        C  0.50021789  0.67337967  0.66548979    -0.11860
C287        C  0.49949035  0.69724957  0.79760120    -0.10300
C288        C  0.50023345  0.67337140  0.83607040    -0.11860
C289        C  0.49898188  0.82584586  0.66549926    -0.10300
C290        C  0.49972378  0.80196772  0.70396850    -0.11860
C291        C  0.49899273  0.82583771  0.83607985    -0.10300
C292        C  0.49973121  0.80195896  0.79761195    -0.11860
C293        C  0.85502767  0.50218542  0.38130455     0.45430
N294        N  0.89775017  0.48020937  0.44516232     0.04320
C295        C  0.54556676  0.12518753  0.09544275    -0.03550
H296        H  0.58359773  0.13022958  0.39645645     0.09820
C297        C  0.62519012  0.45363398  0.40612060    -0.03900
Co298      Co  0.93936785  0.06579152  0.50078640     0.74180
N299        N  0.52833804  0.09909556  0.44531775    -0.23080
Co300      Co  0.56578229  0.05984010  0.50078451     0.74070
C301        C  0.64417778  0.49704201  0.38129744     0.45540
N302        N  0.51902352  0.39774976  0.44516234     0.03940
N303        N  0.60146555  0.01901259  0.44516190     0.04050
N304        N  0.96290119  0.12818654  0.09433706    -0.43930
H305        H  0.86897033  0.08361633  0.39646568     0.09800
N306        N  0.98019515  0.10146914  0.44516415     0.04330
N307        N  0.60146468  0.01900780  0.05640484     0.04070
C308        C  0.64418952  0.99703155  0.12026093     0.45680
N309        N  0.97088064  0.40012485  0.44531686    -0.22540
C310        C  0.87402613  0.04558313  0.09545282    -0.03460
N311        N  0.87103406  0.46292517  0.40723550    -0.43640
N312        N  0.62818205  0.03629189  0.09433077    -0.43870
C313        C  0.85503946  0.00217502  0.12027662     0.45450
N314        N  0.98019095  0.10146751  0.05640776     0.04320
N315        N  0.97087395  0.40012175  0.05625151    -0.22560
N316        N  0.90011930  0.02835267  0.44531874    -0.23050
N317        N  0.51901684  0.39774815  0.05640599     0.03960
H318        H  0.91561346  0.36898774  0.10511188     0.09850
H319        H  0.63023971  0.41560100  0.10510779     0.09880
N320        N  0.52833384  0.09909242  0.05625242    -0.23100
N321        N  0.59909522  0.47086950  0.44531714    -0.22710
N322        N  0.89774616  0.48020467  0.05640523     0.04320
C323        C  0.00216664  0.14418291  0.38129932     0.45720
C324        C  0.95364827  0.37402978  0.40612630    -0.03970
N325        N  0.59909236  0.47086464  0.05625360    -0.22710
H326        H  0.63023436  0.41561019  0.39645349     0.09870
N327        N  0.96290785  0.12818477  0.40723184    -0.43940
H328        H  0.91562529  0.36898906  0.39646418     0.09850
C329        C  0.49704436  0.35503444  0.12027048     0.45550
C330        C  0.87401903  0.04559144  0.40612885    -0.03460
Co331      Co  0.93343098  0.43937717  0.00078373     0.73820
N332        N  0.53631383  0.37103071  0.40723329    -0.43650
C333        C  0.50215787  0.14418498  0.12026592     0.45820
N334        N  0.87103348  0.46291662  0.09433835    -0.43640
Co335      Co  0.55984539  0.43342575  0.00078480     0.73890
C336        C  0.62519130  0.45362588  0.09544444    -0.03970
C337        C  0.54557401  0.12518940  0.40612257    -0.03530
N338        N  0.90011963  0.02834771  0.05625524    -0.23060
N339        N  0.62817707  0.03630064  0.40722790    -0.43820
H340        H  0.58358988  0.13022831  0.10510426     0.09830
C341        C  0.95363734  0.37402794  0.09544644    -0.03950
Cl342      Cl  0.49960878  0.99960864  0.00078493    -0.46950
C343        C  0.99705743  0.35503234  0.38130383     0.45580
H344        H  0.86898218  0.08360689  0.10512023     0.09790
N345        N  0.53630350  0.37103258  0.09433861    -0.43660
C346        C  0.99983139  0.27431289  0.25078762     0.03540
C347        C  0.99938140  0.22490442  0.25078214     0.03540
C348        C  0.77430866  0.49939029  0.25078926     0.03540
C349        C  0.72490036  0.49982648  0.25078033     0.03540
C350        C  0.67337775  0.49896199  0.16548738    -0.10210
C351        C  0.69725683  0.49970841  0.20395440    -0.11860
C352        C  0.69724334  0.49971743  0.29759832    -0.10300
C353        C  0.67336509  0.49897477  0.33606774    -0.11860
C354        C  0.80196566  0.49949946  0.20397127    -0.10300
C355        C  0.82584390  0.50024228  0.16550185    -0.11860
C356        C  0.82583130  0.50025504  0.33608217    -0.10300
C357        C  0.80195220  0.49950848  0.29761517    -0.11860
C358        C  0.99948466  0.19725829  0.20395788    -0.10300
C359        C  0.00022412  0.17337957  0.16548999    -0.11860
C360        C  0.99949208  0.19724963  0.29760134    -0.10300
C361        C  0.00023495  0.17337148  0.33607057    -0.11860
C362        C  0.99897574  0.32584587  0.16549924    -0.10300
C363        C  0.99971950  0.30196770  0.20396844    -0.11860
C364        C  0.99899130  0.32583772  0.33607980    -0.10300
C365        C  0.99972956  0.30195900  0.29761188    -0.11860
C366        C  0.85502767  0.50218542  0.88130455     0.45430
N367        N  0.89775017  0.48020937  0.94516232     0.04320
C368        C  0.54556676  0.12518753  0.59544275    -0.03550
H369        H  0.58359773  0.13022958  0.89645645     0.09820
C370        C  0.62519012  0.45363398  0.90612060    -0.03900
Co371      Co  0.93936785  0.06579153  0.00078640     0.74180
N372        N  0.52833804  0.09909557  0.94531775    -0.23080
Co373      Co  0.56578229  0.05984010  0.00078451     0.74070
C374        C  0.64417778  0.49704201  0.88129744     0.45540
N375        N  0.51902353  0.39774976  0.94516234     0.03940
N376        N  0.60146555  0.01901259  0.94516190     0.04050
N377        N  0.96290120  0.12818653  0.59433706    -0.43930
H378        H  0.86897032  0.08361633  0.89646568     0.09800
N379        N  0.98019515  0.10146914  0.94516415     0.04330
N380        N  0.60146467  0.01900779  0.55640484     0.04070
C381        C  0.64418952  0.99703154  0.62026093     0.45680
N382        N  0.97088064  0.40012485  0.94531686    -0.22540
C383        C  0.87402613  0.04558313  0.59545282    -0.03460
N384        N  0.87103406  0.46292517  0.90723550    -0.43640
N385        N  0.62818205  0.03629188  0.59433077    -0.43870
C386        C  0.85503947  0.00217501  0.62027662     0.45450
N387        N  0.98019096  0.10146751  0.55640777     0.04320
N388        N  0.97087395  0.40012175  0.55625151    -0.22560
N389        N  0.90011930  0.02835268  0.94531874    -0.23050
N390        N  0.51901684  0.39774815  0.55640599     0.03960
H391        H  0.91561347  0.36898774  0.60511188     0.09850
H392        H  0.63023971  0.41560100  0.60510779     0.09880
N393        N  0.52833384  0.09909242  0.55625242    -0.23100
N394        N  0.59909522  0.47086950  0.94531714    -0.22710
N395        N  0.89774616  0.48020468  0.55640523     0.04320
C396        C  0.00216664  0.14418291  0.88129932     0.45720
C397        C  0.95364827  0.37402978  0.90612630    -0.03970
N398        N  0.59909236  0.47086464  0.55625360    -0.22710
H399        H  0.63023436  0.41561019  0.89645349     0.09870
N400        N  0.96290785  0.12818477  0.90723184    -0.43940
H401        H  0.91562529  0.36898906  0.89646418     0.09850
C402        C  0.49704436  0.35503444  0.62027048     0.45550
C403        C  0.87401903  0.04559144  0.90612885    -0.03460
Co404      Co  0.93343098  0.43937717  0.50078373     0.73820
N405        N  0.53631383  0.37103071  0.90723329    -0.43650
C406        C  0.50215787  0.14418497  0.62026592     0.45820
N407        N  0.87103348  0.46291662  0.59433835    -0.43640
Co408      Co  0.55984539  0.43342575  0.50078480     0.73890
C409        C  0.62519130  0.45362588  0.59544444    -0.03970
C410        C  0.54557401  0.12518940  0.90612257    -0.03530
N411        N  0.90011964  0.02834771  0.55625524    -0.23060
N412        N  0.62817707  0.03630065  0.90722790    -0.43820
H413        H  0.58358988  0.13022831  0.60510426     0.09830
C414        C  0.95363734  0.37402794  0.59544644    -0.03950
Cl415      Cl  0.49960877  0.99960864  0.50078493    -0.46950
C416        C  0.99705743  0.35503233  0.88130383     0.45580
H417        H  0.86898218  0.08360689  0.60512023     0.09790
N418        N  0.53630351  0.37103258  0.59433861    -0.43660
C419        C  0.99983140  0.27431289  0.75078762     0.03540
C420        C  0.99938141  0.22490442  0.75078213     0.03540
C421        C  0.77430866  0.49939030  0.75078926     0.03540
C422        C  0.72490036  0.49982649  0.75078033     0.03540
C423        C  0.67337775  0.49896200  0.66548738    -0.10210
C424        C  0.69725683  0.49970841  0.70395440    -0.11860
C425        C  0.69724334  0.49971743  0.79759832    -0.10300
C426        C  0.67336509  0.49897476  0.83606774    -0.11860
C427        C  0.80196566  0.49949946  0.70397127    -0.10300
C428        C  0.82584390  0.50024228  0.66550185    -0.11860
C429        C  0.82583131  0.50025504  0.83608217    -0.10300
C430        C  0.80195220  0.49950848  0.79761517    -0.11860
C431        C  0.99948466  0.19725829  0.70395788    -0.10300
C432        C  0.00022412  0.17337957  0.66548999    -0.11860
C433        C  0.99949208  0.19724963  0.79760134    -0.10300
C434        C  0.00023495  0.17337148  0.83607057    -0.11860
C435        C  0.99897574  0.32584587  0.66549924    -0.10300
C436        C  0.99971951  0.30196770  0.70396844    -0.11860
C437        C  0.99899130  0.32583772  0.83607980    -0.10300
C438        C  0.99972956  0.30195900  0.79761188    -0.11860
C439        C  0.85502800  0.00218560  0.38130898     0.45430
N440        N  0.89775285  0.98020945  0.44516508     0.04320
C441        C  0.54556074  0.62518753  0.09544327    -0.03550
H442        H  0.58359555  0.63022952  0.39645782     0.09820
C443        C  0.62519151  0.95363404  0.40611720    -0.03900
Co444      Co  0.93936357  0.56579154  0.50078481     0.74180
N445        N  0.52833502  0.59909552  0.44531813    -0.23080
Co446      Co  0.56577800  0.55984009  0.50078588     0.74070
C447        C  0.64417826  0.99704211  0.38129340     0.45540
N448        N  0.51902650  0.89774975  0.44516203     0.03940
N449        N  0.60146283  0.51901257  0.44516434     0.04050
N450        N  0.96289517  0.62818665  0.09433633    -0.43930
H451        H  0.86896931  0.58361618  0.39646167     0.09800
N452        N  0.98019213  0.60146915  0.44516363     0.04330
N453        N  0.60145884  0.51900787  0.05640728     0.04070
C454        C  0.64418141  0.49703172  0.12026498     0.45680
N455        N  0.97088362  0.90012492  0.44531746    -0.22540
C456        C  0.87401883  0.54558322  0.09544903    -0.03460
N457        N  0.87103549  0.96292530  0.40723917    -0.43640
N458        N  0.62817500  0.53629202  0.09433409    -0.43870
C459        C  0.85503120  0.50217514  0.12027216     0.45450
N460        N  0.98018544  0.60146755  0.05640729     0.04320
N461        N  0.97087941  0.90012175  0.05625205    -0.22560
N462        N  0.90011663  0.52835261  0.44531598    -0.23050
N463        N  0.51902230  0.89774810  0.05640573     0.03960
H464        H  0.91561955  0.86898785  0.10511317     0.09850
H465        H  0.63024714  0.91560085  0.10510414     0.09880
N466        N  0.52832833  0.59909243  0.05625275    -0.23100
N467        N  0.59909792  0.97086952  0.44531470    -0.22710
N468        N  0.89775203  0.98020465  0.05640799     0.04320
C469        C  0.00216468  0.64418286  0.38129918     0.45720
C470        C  0.95365056  0.87402987  0.40612717    -0.03970
N471        N  0.59909819  0.97086456  0.05625115    -0.22710
H472        H  0.63023546  0.91561027  0.39644986     0.09870
N473        N  0.96290550  0.62818474  0.40723100    -0.43940
H474        H  0.91562741  0.86898915  0.39646576     0.09850
C475        C  0.49705055  0.85503440  0.12027050     0.45550
C476        C  0.87401773  0.54559131  0.40612508    -0.03460
Co477      Co  0.93343524  0.93937721  0.00078535     0.73820
N478        N  0.53631613  0.87103071  0.40723267    -0.43650
C479        C  0.50215161  0.64418503  0.12026575     0.45820
N480        N  0.87104061  0.96291653  0.09434203    -0.43640
Co481      Co  0.55984965  0.93342571  0.00078348     0.73890
C482        C  0.62519846  0.95362575  0.09544102    -0.03970
C483        C  0.54557167  0.62518934  0.40612323    -0.03530
N484        N  0.90011374  0.52834774  0.05625247    -0.23060
N485        N  0.62817552  0.53630057  0.40723120    -0.43820
H486        H  0.58358372  0.63022825  0.10510535     0.09830
C487        C  0.95364330  0.87402796  0.09544715    -0.03950
Cl488      Cl  0.49960449  0.49960864  0.00078481    -0.46950
C489        C  0.99705933  0.85503237  0.38130389     0.45580
H490        H  0.86897457  0.58360699  0.10511618     0.09790
N491        N  0.53630946  0.87103245  0.09433810    -0.43660
C492        C  0.99983287  0.77431287  0.25078765     0.03540
C493        C  0.99937982  0.72490443  0.25078206     0.03540
C494        C  0.77431295  0.99939029  0.25079091     0.03540
C495        C  0.72490465  0.99982645  0.25077899     0.03540
C496        C  0.67338556  0.99896183  0.16548362    -0.10210
C497        C  0.69726349  0.99970828  0.20395146    -0.11860
C498        C  0.69724527  0.99971747  0.29759539    -0.10300
C499        C  0.67336589  0.99897484  0.33606400    -0.11860
C500        C  0.80197235  0.99949939  0.20397455    -0.10300
C501        C  0.82585180  0.00024217  0.16550598    -0.11860
C502        C  0.82583201  0.00025520  0.33608628    -0.10300
C503        C  0.80195409  0.99950858  0.29761844    -0.11860
C504        C  0.99948029  0.69725838  0.20395774    -0.10300
C505        C  0.00021789  0.67337967  0.16548979    -0.11860
C506        C  0.99949035  0.69724957  0.29760120    -0.10300
C507        C  0.00023345  0.67337141  0.33607040    -0.11860
C508        C  0.99898187  0.82584586  0.16549926    -0.10300
C509        C  0.99972377  0.80196772  0.20396850    -0.11860
C510        C  0.99899272  0.82583771  0.33607984    -0.10300
C511        C  0.99973120  0.80195896  0.29761194    -0.11860
C512        C  0.85502800  0.00218560  0.88130898     0.45430
N513        N  0.89775284  0.98020945  0.94516508     0.04320
C514        C  0.54556074  0.62518753  0.59544326    -0.03550
H515        H  0.58359555  0.63022951  0.89645782     0.09820
C516        C  0.62519151  0.95363404  0.90611720    -0.03900
Co517      Co  0.93936356  0.56579154  0.00078481     0.74180
N518        N  0.52833502  0.59909552  0.94531813    -0.23080
Co519      Co  0.56577800  0.55984009  0.00078588     0.74070
C520        C  0.64417826  0.99704211  0.88129340     0.45540
N521        N  0.51902650  0.89774975  0.94516203     0.03940
N522        N  0.60146283  0.51901257  0.94516434     0.04050
N523        N  0.96289517  0.62818665  0.59433633    -0.43930
H524        H  0.86896931  0.58361618  0.89646167     0.09800
N525        N  0.98019213  0.60146914  0.94516363     0.04330
N526        N  0.60145884  0.51900787  0.55640728     0.04070
C527        C  0.64418141  0.49703172  0.62026498     0.45680
N528        N  0.97088362  0.90012492  0.94531746    -0.22540
C529        C  0.87401883  0.54558322  0.59544903    -0.03460
N530        N  0.87103549  0.96292530  0.90723917    -0.43640
N531        N  0.62817500  0.53629202  0.59433409    -0.43870
C532        C  0.85503120  0.50217514  0.62027216     0.45450
N533        N  0.98018544  0.60146755  0.55640729     0.04320
N534        N  0.97087941  0.90012174  0.55625205    -0.22560
N535        N  0.90011663  0.52835260  0.94531598    -0.23050
N536        N  0.51902230  0.89774810  0.55640573     0.03960
H537        H  0.91561955  0.86898785  0.60511317     0.09850
H538        H  0.63024714  0.91560085  0.60510414     0.09880
N539        N  0.52832833  0.59909243  0.55625275    -0.23100
N540        N  0.59909793  0.97086952  0.94531470    -0.22710
N541        N  0.89775203  0.98020464  0.55640799     0.04320
C542        C  0.00216468  0.64418286  0.88129918     0.45720
C543        C  0.95365056  0.87402987  0.90612717    -0.03970
N544        N  0.59909819  0.97086456  0.55625115    -0.22710
H545        H  0.63023546  0.91561027  0.89644987     0.09870
N546        N  0.96290550  0.62818474  0.90723100    -0.43940
H547        H  0.91562741  0.86898915  0.89646576     0.09850
C548        C  0.49705055  0.85503440  0.62027051     0.45550
C549        C  0.87401773  0.54559130  0.90612508    -0.03460
Co550      Co  0.93343524  0.93937721  0.50078536     0.73820
N551        N  0.53631613  0.87103071  0.90723267    -0.43650
C552        C  0.50215161  0.64418503  0.62026575     0.45820
N553        N  0.87104061  0.96291653  0.59434203    -0.43640
Co554      Co  0.55984965  0.93342571  0.50078348     0.73890
C555        C  0.62519846  0.95362575  0.59544102    -0.03970
C556        C  0.54557167  0.62518933  0.90612324    -0.03530
N557        N  0.90011374  0.52834774  0.55625247    -0.23060
N558        N  0.62817553  0.53630057  0.90723120    -0.43820
H559        H  0.58358373  0.63022825  0.60510535     0.09830
C560        C  0.95364330  0.87402796  0.59544716    -0.03950
Cl561      Cl  0.49960449  0.49960865  0.50078481    -0.46950
C562        C  0.99705933  0.85503237  0.88130389     0.45580
H563        H  0.86897457  0.58360700  0.60511618     0.09790
N564        N  0.53630946  0.87103245  0.59433810    -0.43660
C565        C  0.99983287  0.77431287  0.75078765     0.03540
C566        C  0.99937982  0.72490443  0.75078206     0.03540
C567        C  0.77431295  0.99939029  0.75079091     0.03540
C568        C  0.72490465  0.99982645  0.75077899     0.03540
C569        C  0.67338556  0.99896182  0.66548362    -0.10210
C570        C  0.69726349  0.99970828  0.70395146    -0.11860
C571        C  0.69724527  0.99971747  0.79759538    -0.10300
C572        C  0.67336589  0.99897484  0.83606400    -0.11860
C573        C  0.80197235  0.99949939  0.70397454    -0.10300
C574        C  0.82585180  0.00024217  0.66550598    -0.11860
C575        C  0.82583201  0.00025521  0.83608628    -0.10300
C576        C  0.80195409  0.99950858  0.79761844    -0.11860
C577        C  0.99948029  0.69725838  0.70395774    -0.10300
C578        C  0.00021789  0.67337967  0.66548979    -0.11860
C579        C  0.99949035  0.69724957  0.79760120    -0.10300
C580        C  0.00023345  0.67337140  0.83607040    -0.11860
C581        C  0.99898188  0.82584586  0.66549926    -0.10300
C582        C  0.99972377  0.80196772  0.70396850    -0.11860
C583        C  0.99899272  0.82583771  0.83607985    -0.10300
C584        C  0.99973120  0.80195896  0.79761195    -0.11860
loop_ 
_geom_bond_atom_site_label_1 
_geom_bond_atom_site_label_2 
_geom_bond_distance 
_geom_bond_site_symmetry_2 
_ccdc_geom_bond_type 
C1           N19   1.347       .  A
C1           C64   1.435       .  S
C1          C184   1.453       .  S
N2           N19   1.325       .  A
N2          N170   1.321       .  A
N2         Co112   2.086       .  S
C3           N28   1.341       .  A
C3           C41   1.453       .  S
C3           H48   1.081       .  S
H4           C45   1.081       .  S
C5           N29   1.341       .  A
C5            C9   1.453       .  S
C5           H34   1.081       .  S
Co6          N24   2.083       .  S
Co6          N14   2.085       .  S
Co6         N119   2.083       .  S
Co6          N95   2.086       .  S
Co6        Cl415   2.452   1_545  S
N7           C45   1.341       .  A
N7          N306   1.321   1_455  A
N7           Co8   2.083       .  S
Co8          N11   2.085       .  S
Co8         N101   2.083       .  S
Co8          N88   2.086       .  S
Co8        Cl123   2.452   1_445  S
C9          N193   1.347       .  A
C9           C61   1.435       .  S
N10          N40   1.325       .  A
N10         N309   1.321   1_455  A
N10        Co116   2.086       .  S
N11          N47   1.325       .  A
N11         N175   1.321   1_545  A
N12         C333   1.347       .  A
N12          N22   1.325       .  A
H13          C38   1.081       .  S
N14          N35   1.325       .  A
N14         N299   1.321       .  A
N15          N20   1.325       .  A
N15         N179   1.321   1_545  A
N15         Co81   2.086       .  S
C16          N20   1.347   1_565  A
C16         C204   1.435       .  S
C16         C190   1.453       .  S
N17          C32   1.341       .  A
N17         N302   1.321       .  A
N17        Co112   2.083       .  S
C18          N46   1.341       .  A
C18          C21   1.453       .  S
C18          H52   1.081       .  S
C21         N188   1.347   1_545  A
C21         C209   1.435       .  S
N22         N320   1.321       .  A
N22         Co79   2.086       .  S
N23          C49   1.341       .  A
N23         N317   1.321       .  A
N23         Co39   2.083       .  S
N24          C38   1.341       .  A
N24         N148   1.321   1_545  A
N25          N53   1.325       .  A
N25         N315   1.321   1_455  A
N25         Co43   2.085       .  S
H26          C49   1.081       .  S
H27          C44   1.081       .  S
N28         N314   1.321   1_455  A
N28         Co81   2.083       .  S
N29         N157   1.321       .  A
N29        Co116   2.083       .  S
N30          N42   1.325       .  A
N30         N192   1.321       .  A
N30         Co39   2.085       .  S
C31          N35   1.347       .  A
C31          C69   1.435       .  S
C31         C337   1.453       .  S
C32          C51   1.453       .  S
C32          H36   1.081       .  S
N33          C44   1.341       .  A
N33         N161   1.321       .  A
N33         Co43   2.083       .  S
C37          N53   1.347   1_655  A
C37         C362   1.435       .  S
C37         C341   1.453       .  S
C38         C147   1.453       .  S
Co39         N75   2.086   1_554  S
Co39         N90   2.083   1_554  S
Co39       Cl488   2.452       .  S
N40         C343   1.347   1_455  A
C41         N304   1.347   1_455  A
C41         C359   1.435       .  S
N42         C167   1.347       .  A
Co43         N83   2.086   1_554  S
Co43        N102   2.083   1_554  S
Co43       Cl196   2.452   1_455  S
C44         C162   1.453       .  S
C45         C323   1.453       .  S
N46         N176   1.321   1_545  A
N46         Co79   2.083       .  S
N47         C155   1.347   1_545  A
C49         C329   1.453       .  S
Cl50       Co371   2.452   1_565  S
Cl50        Co81   2.452   1_665  S
Cl50       Co477   2.452       .  S
Cl50       Co189   2.452   1_655  S
C51         N332   1.347       .  A
C51          C72   1.435       .  S
C54          C55   1.354       .  D
C54          C71   1.446       .  S
C54          C73   1.446       .  S
C55          C66   1.446       .  S
C55          C68   1.446       .  S
C56          C57   1.354       .  D
C56          C62   1.446       .  S
C56          C65   1.446       .  S
C57          C59   1.446       .  S
C57          C60   1.446       .  S
C58         C162   1.435       .  S
C58          C59   1.205       .  T
C60          C61   1.205       .  T
C62          C63   1.205       .  T
C63         C167   1.435       .  S
C64          C65   1.205       .  T
C66          C67   1.205       .  T
C67         C333   1.435       .  S
C68          C69   1.205       .  T
C70         C329   1.435       .  S
C70          C71   1.205       .  T
C72          C73   1.205       .  T
C74          N92   1.347       .  A
C74         C137   1.435       .  S
C74         C257   1.453       .  S
N75          N92   1.325       .  A
N75         N243   1.321       .  A
C76         N101   1.341       .  A
C76         C114   1.453       .  S
C76         H121   1.081       .  S
H77         C118   1.081       .  S
C78         N102   1.341       .  A
C78          C82   1.453       .  S
C78         H107   1.081       .  S
Co79         N97   2.083   1_554  S
Co79         N87   2.085   1_554  S
Co79       Cl342   2.452   1_545  S
N80         C118   1.341       .  A
N80         N379   1.321   1_455  A
N80         Co81   2.083   1_556  S
Co81         N84   2.085   1_554  S
C82         N266   1.347       .  A
C82         C134   1.435       .  S
N83         N382   1.321   1_455  A
N83         N113   1.325       .  A
N84         N248   1.321   1_545  A
N84         N120   1.325       .  A
N85         C406   1.347       .  A
N85          N95   1.325       .  A
H86         C111   1.081       .  S
N87         N372   1.321       .  A
N87         N108   1.325       .  A
N88         N252   1.321   1_545  A
N88          N93   1.325       .  A
C89          N93   1.347   1_565  A
C89         C277   1.435       .  S
C89         C263   1.453       .  S
N90         C105   1.341       .  A
N90         N375   1.321       .  A
C91         N119   1.341       .  A
C91          C94   1.453       .  S
C91         H125   1.081       .  S
C94         N261   1.347   1_545  A
C94         C282   1.435       .  S
N95         N393   1.321       .  A
N96         C122   1.341       .  A
N96         N390   1.321       .  A
N96        Co112   2.083       .  S
N97         C111   1.341       .  A
N97         N221   1.321   1_545  A
N98         N388   1.321   1_455  A
N98         N126   1.325       .  A
N98        Co116   2.085       .  S
H99         C122   1.081       .  S
H100        C117   1.081       .  S
N101        N387   1.321   1_455  A
N102        N230   1.321       .  A
N103        N115   1.325       .  A
N103        N265   1.321       .  A
N103       Co112   2.085       .  S
C104        N108   1.347       .  A
C104        C142   1.435       .  S
C104        C410   1.453       .  S
C105        C124   1.453       .  S
C105        H109   1.081       .  S
N106        C117   1.341       .  A
N106        N234   1.321       .  A
N106       Co116   2.083       .  S
C110        N126   1.347   1_655  A
C110        C435   1.435       .  S
C110        C414   1.453       .  S
C111        C220   1.453       .  S
Co112      Cl561   2.452       .  S
N113        C416   1.347   1_455  A
C114        N377   1.347   1_455  A
C114        C432   1.435       .  S
N115        C240   1.347       .  A
Co116      Cl269   2.452   1_455  S
C117        C235   1.453       .  S
C118        C396   1.453       .  S
N119        N249   1.321   1_545  A
N120        C228   1.347   1_545  A
C122        C402   1.453       .  S
Cl123      Co298   2.452   1_565  S
Cl123      Co550   2.452       .  S
Cl123      Co262   2.452   1_655  S
C124        N405   1.347       .  A
C124        C145   1.435       .  S
C127        C128   1.354       .  D
C127        C144   1.446       .  S
C127        C146   1.446       .  S
C128        C139   1.446       .  S
C128        C141   1.446       .  S
C129        C130   1.354       .  D
C129        C135   1.446       .  S
C129        C138   1.446       .  S
C130        C132   1.446       .  S
C130        C133   1.446       .  S
C131        C235   1.435       .  S
C131        C132   1.205       .  T
C133        C134   1.205       .  T
C135        C136   1.205       .  T
C136        C240   1.435       .  S
C137        C138   1.205       .  T
C139        C140   1.205       .  T
C140        C406   1.435       .  S
C141        C142   1.205       .  T
C143        C402   1.435       .  S
C143        C144   1.205       .  T
C145        C146   1.205       .  T
C147        N165   1.347   1_545  A
C147        C210   1.435       .  S
N148        N165   1.325       .  A
N148       Co258   2.086       .  S
C149        N174   1.341       .  A
C149        C187   1.453       .  S
C149        H194   1.081       .  S
H150        C191   1.081       .  S
C151        N175   1.341       .  A
C151        C155   1.453       .  S
C151        H180   1.081       .  S
Co152       N170   2.083       .  S
Co152       N160   2.085       .  S
Co152       N265   2.083       .  S
Co152       N241   2.086       .  S
Co152      Cl561   2.452       .  S
N153        C191   1.341       .  A
N153        N452   1.321   1_455  A
N153       Co154   2.083       .  S
Co154       N157   2.085       .  S
Co154       N247   2.083       .  S
Co154       N234   2.086       .  S
Co154      Cl269   2.452   1_455  S
C155        C207   1.435       .  S
N156        N455   1.321   1_455  A
N156        N186   1.325       .  A
N156       Co262   2.086       .  S
N157        N193   1.325       .  A
N158        C479   1.347       .  A
N158        N168   1.325       .  A
H159        C184   1.081       .  S
N160        N445   1.321       .  A
N160        N181   1.325       .  A
N161        N166   1.325       .  A
N161       Co227   2.086       .  S
C162        N166   1.347       .  A
N163        C178   1.341       .  A
N163        N448   1.321       .  A
N163       Co258   2.083       .  S
C164        N192   1.341       .  A
C164        C167   1.453       .  S
C164        H198   1.081       .  S
N168        N466   1.321       .  A
N168       Co225   2.086       .  S
N169        C195   1.341       .  A
N169        N463   1.321       .  A
N169       Co185   2.083       .  S
N170        C184   1.341       .  A
N171        N461   1.321   1_455  A
N171        N199   1.325       .  A
N171       Co189   2.085       .  S
H172        C195   1.081       .  S
H173        C190   1.081       .  S
N174        N460   1.321   1_455  A
N174       Co227   2.083       .  S
N175       Co262   2.083       .  S
N176        N188   1.325       .  A
N176       Co185   2.085       .  S
C177        N181   1.347       .  A
C177        C215   1.435       .  S
C177        C483   1.453       .  S
C178        C197   1.453       .  S
C178        H182   1.081       .  S
N179        C190   1.341       .  A
N179       Co189   2.083       .  S
C183        N199   1.347   1_655  A
C183        C508   1.435       .  S
C183        C487   1.453       .  S
Co185       N221   2.086   1_554  S
Co185       N236   2.083   1_554  S
Co185      Cl342   2.452       .  S
N186        C489   1.347   1_455  A
C187        N450   1.347   1_455  A
C187        C505   1.435       .  S
Co189       N229   2.086   1_554  S
Co189       N248   2.083   1_554  S
C191        C469   1.453       .  S
N192       Co225   2.083       .  S
C195        C475   1.453       .  S
Cl196      Co517   2.452       .  S
Cl196      Co227   2.452   1_655  S
Cl196      Co331   2.452       .  S
C197        N478   1.347       .  A
C197        C218   1.435       .  S
C200        C201   1.354       .  D
C200        C217   1.446       .  S
C200        C219   1.446       .  S
C201        C212   1.446       .  S
C201        C214   1.446       .  S
C202        C203   1.354       .  D
C202        C208   1.446       .  S
C202        C211   1.446       .  S
C203        C205   1.446       .  S
C203        C206   1.446       .  S
C204        C205   1.205       .  T
C206        C207   1.205       .  T
C208        C209   1.205   1_565  T
C210        C211   1.205   1_545  T
C212        C213   1.205       .  T
C213        C479   1.435       .  S
C214        C215   1.205       .  T
C216        C475   1.435       .  S
C216        C217   1.205       .  T
C218        C219   1.205       .  T
C220        N238   1.347   1_545  A
C220        C283   1.435       .  S
N221        N238   1.325       .  A
C222        N247   1.341       .  A
C222        C260   1.453       .  S
C222        H267   1.081       .  S
H223        C264   1.081       .  S
C224        N248   1.341       .  A
C224        C228   1.453       .  S
C224        H253   1.081       .  S
Co225       N243   2.083   1_554  S
Co225       N233   2.085   1_554  S
Co225      Cl488   2.452       .  S
N226        C264   1.341       .  A
N226        N525   1.321   1_455  A
N226       Co227   2.083   1_556  S
Co227       N230   2.085   1_554  S
C228        C280   1.435       .  S
N229        N528   1.321   1_455  A
N229        N259   1.325       .  A
N230        N266   1.325       .  A
N231        C552   1.347       .  A
N231        N241   1.325       .  A
H232        C257   1.081       .  S
N233        N518   1.321       .  A
N233        N254   1.325       .  A
N234        N239   1.325       .  A
C235        N239   1.347       .  A
N236        C251   1.341       .  A
N236        N521   1.321       .  A
C237        N265   1.341       .  A
C237        C240   1.453       .  S
C237        H271   1.081       .  S
N241        N539   1.321       .  A
N242        C268   1.341       .  A
N242        N536   1.321       .  A
N242       Co258   2.083       .  S
N243        C257   1.341       .  A
N244        N534   1.321   1_455  A
N244        N272   1.325       .  A
N244       Co262   2.085       .  S
H245        C268   1.081       .  S
H246        C263   1.081       .  S
N247        N533   1.321   1_455  A
N249        N261   1.325       .  A
N249       Co258   2.085       .  S
C250        N254   1.347       .  A
C250        C288   1.435       .  S
C250        C556   1.453       .  S
C251        C270   1.453       .  S
C251        H255   1.081       .  S
N252        C263   1.341       .  A
N252       Co262   2.083       .  S
C256        N272   1.347   1_655  A
C256        C581   1.435       .  S
C256        C560   1.453       .  S
Co258      Cl415   2.452       .  S
N259        C562   1.347   1_455  A
C260        N523   1.347   1_455  A
C260        C578   1.435       .  S
C264        C542   1.453       .  S
C268        C548   1.453       .  S
Cl269      Co444   2.452       .  S
Cl269      Co404   2.452       .  S
C270        N551   1.347       .  A
C270        C291   1.435       .  S
C273        C274   1.354       .  D
C273        C290   1.446       .  S
C273        C292   1.446       .  S
C274        C285   1.446       .  S
C274        C287   1.446       .  S
C275        C276   1.354       .  D
C275        C281   1.446       .  S
C275        C284   1.446       .  S
C276        C278   1.446       .  S
C276        C279   1.446       .  S
C277        C278   1.205       .  T
C279        C280   1.205       .  T
C281        C282   1.205   1_565  T
C283        C284   1.205   1_545  T
C285        C286   1.205       .  T
C286        C552   1.435       .  S
C287        C288   1.205       .  T
C289        C548   1.435       .  S
C289        C290   1.205       .  T
C291        C292   1.205       .  T
C293        N311   1.347       .  A
C293        C356   1.435       .  S
C293        C476   1.453       .  S
N294        N311   1.325       .  A
N294        N462   1.321       .  A
N294       Co404   2.086       .  S
C295        N320   1.341       .  A
C295        C333   1.453       .  S
C295        H340   1.081       .  S
H296        C337   1.081       .  S
C297        N321   1.341       .  A
C297        C301   1.453       .  S
C297        H326   1.081       .  S
Co298       N316   2.083       .  S
Co298       N306   2.085       .  S
Co298       N411   2.083       .  S
Co298       N387   2.086       .  S
N299        C337   1.341       .  A
N299       Co300   2.083       .  S
Co300       N303   2.085       .  S
Co300       N393   2.083       .  S
Co300       N380   2.086       .  S
Co300      Cl415   2.452   1_545  S
C301        N485   1.347       .  A
C301        C353   1.435       .  S
N302        N332   1.325       .  A
N302       Co408   2.086       .  S
N303        N467   1.321   1_545  A
N303        N339   1.325       .  A
N304        N314   1.325       .  A
H305        C330   1.081       .  S
N306        N327   1.325       .  A
N307        N471   1.321   1_545  A
N307        N312   1.325       .  A
N307       Co373   2.086       .  S
C308        N312   1.347   1_565  A
C308        C496   1.435       .  S
C308        C482   1.453       .  S
N309        C324   1.341       .  A
N309       Co404   2.083       .  S
C310        N338   1.341       .  A
C310        C313   1.453       .  S
C310        H344   1.081       .  S
C313        N480   1.347   1_545  A
C313        C501   1.435       .  S
N314       Co371   2.086       .  S
N315        C341   1.341       .  A
N315       Co331   2.083       .  S
N316        C330   1.341       .  A
N316        N440   1.321   1_545  A
N317        N345   1.325       .  A
N317       Co335   2.085       .  S
H318        C341   1.081       .  S
H319        C336   1.081       .  S
N320       Co373   2.083       .  S
N321        N449   1.321       .  A
N321       Co408   2.083       .  S
N322        N334   1.325       .  A
N322        N484   1.321       .  A
N322       Co331   2.085       .  S
C323        N327   1.347   1_455  A
C323        C361   1.435       .  S
C324        C343   1.453       .  S
C324        H328   1.081       .  S
N325        C336   1.341       .  A
N325        N453   1.321       .  A
N325       Co335   2.083       .  S
C329        N345   1.347       .  A
C330        C439   1.453       .  S
Co331       N367   2.086   1_554  S
Co331       N382   2.083   1_554  S
N334        C459   1.347       .  A
Co335       N375   2.086   1_554  S
Co335       N394   2.083   1_554  S
Co335      Cl488   2.452       .  S
C336        C454   1.453       .  S
N338        N468   1.321   1_545  A
N338       Co371   2.083       .  S
N339        C447   1.347   1_545  A
Cl342      Co373   2.452   1_565  S
Cl342      Co481   2.452       .  S
C343        C364   1.435       .  S
C346        C347   1.354       .  D
C346        C363   1.446       .  S
C346        C365   1.446       .  S
C347        C358   1.446       .  S
C347        C360   1.446       .  S
C348        C349   1.354       .  D
C348        C354   1.446       .  S
C348        C357   1.446       .  S
C349        C351   1.446       .  S
C349        C352   1.446       .  S
C350        C454   1.435       .  S
C350        C351   1.205       .  T
C352        C353   1.205       .  T
C354        C355   1.205       .  T
C355        C459   1.435       .  S
C356        C357   1.205       .  T
C358        C359   1.205   1_655  T
C360        C361   1.205   1_655  T
C362        C363   1.205       .  T
C364        C365   1.205       .  T
C366        N384   1.347       .  A
C366        C429   1.435       .  S
C366        C549   1.453       .  S
N367        N384   1.325       .  A
N367        N535   1.321       .  A
C368        N393   1.341       .  A
C368        C406   1.453       .  S
C368        H413   1.081       .  S
H369        C410   1.081       .  S
C370        N394   1.341       .  A
C370        C374   1.453       .  S
C370        H399   1.081       .  S
Co371       N389   2.083   1_554  S
Co371       N379   2.085   1_554  S
N372        C410   1.341       .  A
N372       Co373   2.083   1_556  S
Co373       N376   2.085   1_554  S
C374        N558   1.347       .  A
C374        C426   1.435       .  S
N375        N405   1.325       .  A
N376        N540   1.321   1_545  A
N376        N412   1.325       .  A
N377        N387   1.325       .  A
H378        C403   1.081       .  S
N379        N400   1.325       .  A
N380        N544   1.321   1_545  A
N380        N385   1.325       .  A
C381        N385   1.347   1_565  A
C381        C569   1.435       .  S
C381        C555   1.453       .  S
N382        C397   1.341       .  A
C383        N411   1.341       .  A
C383        C386   1.453       .  S
C383        H417   1.081       .  S
C386        N553   1.347   1_545  A
C386        C574   1.435       .  S
N388        C414   1.341       .  A
N388       Co404   2.083       .  S
N389        C403   1.341       .  A
N389        N513   1.321   1_545  A
N390        N418   1.325       .  A
N390       Co408   2.085       .  S
H391        C414   1.081       .  S
H392        C409   1.081       .  S
N394        N522   1.321       .  A
N395        N407   1.325       .  A
N395        N557   1.321       .  A
N395       Co404   2.085       .  S
C396        N400   1.347   1_455  A
C396        C434   1.435       .  S
C397        C416   1.453       .  S
C397        H401   1.081       .  S
N398        C409   1.341       .  A
N398        N526   1.321       .  A
N398       Co408   2.083       .  S
C402        N418   1.347       .  A
C403        C512   1.453       .  S
N407        C532   1.347       .  A
Co408      Cl561   2.452       .  S
C409        C527   1.453       .  S
N411        N541   1.321   1_545  A
N412        C520   1.347   1_545  A
Cl415      Co554   2.452       .  S
C416        C437   1.435       .  S
C419        C420   1.354       .  D
C419        C436   1.446       .  S
C419        C438   1.446       .  S
C420        C431   1.446       .  S
C420        C433   1.446       .  S
C421        C422   1.354       .  D
C421        C427   1.446       .  S
C421        C430   1.446       .  S
C422        C424   1.446       .  S
C422        C425   1.446       .  S
C423        C527   1.435       .  S
C423        C424   1.205       .  T
C425        C426   1.205       .  T
C427        C428   1.205       .  T
C428        C532   1.435       .  S
C429        C430   1.205       .  T
C431        C432   1.205   1_655  T
C433        C434   1.205   1_655  T
C435        C436   1.205       .  T
C437        C438   1.205       .  T
C439        N457   1.347   1_545  A
C439        C502   1.435       .  S
N440        N457   1.325       .  A
N440       Co550   2.086       .  S
C441        N466   1.341       .  A
C441        C479   1.453       .  S
C441        H486   1.081       .  S
H442        C483   1.081       .  S
C443        N467   1.341       .  A
C443        C447   1.453       .  S
C443        H472   1.081       .  S
Co444       N462   2.083       .  S
Co444       N452   2.085       .  S
Co444       N557   2.083       .  S
Co444       N533   2.086       .  S
N445        C483   1.341       .  A
N445       Co446   2.083       .  S
Co446       N449   2.085       .  S
Co446       N539   2.083       .  S
Co446       N526   2.086       .  S
Co446      Cl561   2.452       .  S
C447        C499   1.435       .  S
N448        N478   1.325       .  A
N448       Co554   2.086       .  S
N449        N485   1.325       .  A
N450        N460   1.325       .  A
H451        C476   1.081       .  S
N452        N473   1.325       .  A
N453        N458   1.325       .  A
N453       Co519   2.086       .  S
C454        N458   1.347       .  A
N455        C470   1.341       .  A
N455       Co550   2.083       .  S
C456        N484   1.341       .  A
C456        C459   1.453       .  S
C456        H490   1.081       .  S
N460       Co517   2.086       .  S
N461        C487   1.341       .  A
N461       Co477   2.083       .  S
N462        C476   1.341       .  A
N463        N491   1.325       .  A
N463       Co481   2.085       .  S
H464        C487   1.081       .  S
H465        C482   1.081       .  S
N466       Co519   2.083       .  S
N467       Co554   2.083       .  S
N468        N480   1.325       .  A
N468       Co477   2.085       .  S
C469        N473   1.347   1_455  A
C469        C507   1.435       .  S
C470        C489   1.453       .  S
C470        H474   1.081       .  S
N471        C482   1.341       .  A
N471       Co481   2.083       .  S
C475        N491   1.347       .  A
Co477       N513   2.086   1_554  S
Co477       N528   2.083   1_554  S
Co481       N521   2.086   1_554  S
Co481       N540   2.083   1_554  S
N484       Co517   2.083       .  S
Cl488      Co519   2.452       .  S
C489        C510   1.435       .  S
C492        C493   1.354       .  D
C492        C509   1.446       .  S
C492        C511   1.446       .  S
C493        C504   1.446       .  S
C493        C506   1.446       .  S
C494        C495   1.354       .  D
C494        C500   1.446       .  S
C494        C503   1.446       .  S
C495        C497   1.446       .  S
C495        C498   1.446       .  S
C496        C497   1.205       .  T
C498        C499   1.205       .  T
C500        C501   1.205   1_565  T
C502        C503   1.205   1_545  T
C504        C505   1.205   1_655  T
C506        C507   1.205   1_655  T
C508        C509   1.205       .  T
C510        C511   1.205       .  T
C512        N530   1.347   1_545  A
C512        C575   1.435       .  S
N513        N530   1.325       .  A
C514        N539   1.341       .  A
C514        C552   1.453       .  S
C514        H559   1.081       .  S
H515        C556   1.081       .  S
C516        N540   1.341       .  A
C516        C520   1.453       .  S
C516        H545   1.081       .  S
Co517       N535   2.083   1_554  S
Co517       N525   2.085   1_554  S
N518        C556   1.341       .  A
N518       Co519   2.083   1_556  S
Co519       N522   2.085   1_554  S
C520        C572   1.435       .  S
N521        N551   1.325       .  A
N522        N558   1.325       .  A
N523        N533   1.325       .  A
H524        C549   1.081       .  S
N525        N546   1.325       .  A
N526        N531   1.325       .  A
C527        N531   1.347       .  A
N528        C543   1.341       .  A
C529        N557   1.341       .  A
C529        C532   1.453       .  S
C529        H563   1.081       .  S
N534        C560   1.341       .  A
N534       Co550   2.083       .  S
N535        C549   1.341       .  A
N536        N564   1.325       .  A
N536       Co554   2.085       .  S
H537        C560   1.081       .  S
H538        C555   1.081       .  S
N541        N553   1.325       .  A
N541       Co550   2.085       .  S
C542        N546   1.347   1_455  A
C542        C580   1.435       .  S
C543        C562   1.453       .  S
C543        H547   1.081       .  S
N544        C555   1.341       .  A
N544       Co554   2.083       .  S
C548        N564   1.347       .  A
C562        C583   1.435       .  S
C565        C566   1.354       .  D
C565        C582   1.446       .  S
C565        C584   1.446       .  S
C566        C577   1.446       .  S
C566        C579   1.446       .  S
C567        C568   1.354       .  D
C567        C573   1.446       .  S
C567        C576   1.446       .  S
C568        C570   1.446       .  S
C568        C571   1.446       .  S
C569        C570   1.205       .  T
C571        C572   1.205       .  T
C573        C574   1.205   1_565  T
C575        C576   1.205   1_545  T
C577        C578   1.205   1_655  T
C579        C580   1.205   1_655  T
C581        C582   1.205       .  T
C583        C584   1.205       .  T
