geometry optimzed in LAMMPS
_audit_creation_date              2020-11-30 
_audit_creation_method            'lammps2cif' 
_symmetry_space_group_name_H-M    'P1' 
_symmetry_Int_Tables_number       1 
_symmetry_cell_setting            triclinic 
loop_ 
_symmetry_equiv_pos_as_xyz 
  x,y,z 
_cell_length_a                    31.43260565129263 
_cell_length_b                    32.33830081830997 
_cell_length_c                    32.24753408411037 
_cell_angle_alpha                 90.26757552584027 
_cell_angle_beta                  90.82955892766607 
_cell_angle_gamma                 90.68283112664776 
loop_ 
_atom_site_label 
_atom_site_type_symbol 
_atom_site_fract_x 
_atom_site_fract_y 
_atom_site_fract_z 
_atom_site_charge 
C1          C  0.75294028  0.72067036  0.78241584     0.02580
C2          C  0.72186537  0.75258148  0.78410267     0.02580
C3          C  0.72095288  0.78486977  0.75329100     0.02580
C4          C  0.75068713  0.78434616  0.71898438     0.02580
C5          C  0.78467416  0.75413790  0.71996889     0.02580
C6          C  0.78511353  0.72232823  0.75152672     0.02580
C7          C  0.78124230  0.28723977  0.74468176     0.02580
C8          C  0.75099501  0.28660065  0.77839505     0.02580
C9          C  0.71639278  0.25662256  0.77730583     0.02580
C10         C  0.71617282  0.22427868  0.74609907     0.02580
C11         C  0.74833954  0.22307487  0.71474013     0.02580
C12         C  0.77988444  0.25566368  0.71268777     0.02580
C13         C  0.24112813  0.28182042  0.78321319     0.02580
C14         C  0.20606089  0.27728675  0.75252717     0.02580
C15         C  0.20492186  0.23979184  0.72599569     0.02580
C16         C  0.24092226  0.21170902  0.72577913     0.02580
C17         C  0.27682916  0.21823864  0.75341504     0.02580
C18         C  0.27666206  0.25285852  0.78201190     0.02580
C19         C  0.27996657  0.75103973  0.78554216     0.02580
C20         C  0.27682772  0.78517680  0.75656531     0.02580
C21         C  0.24409133  0.78522114  0.72461257     0.02580
C22         C  0.21092684  0.75403690  0.72501775     0.02580
C23         C  0.21120816  0.72330033  0.75768677     0.02580
C24         C  0.24668176  0.71959502  0.78682471     0.02580
C25         C  0.29081328  0.77772637  0.25363460     0.02580
C26         C  0.28808166  0.74591312  0.22142449     0.02580
C27         C  0.25159619  0.71804899  0.21939132     0.02580
C28         C  0.22001796  0.71906248  0.25137646     0.02580
C29         C  0.22345611  0.74916537  0.28454895     0.02580
C30         C  0.25834615  0.77909964  0.28554685     0.02580
C31         C  0.72092949  0.74992175  0.21757986     0.02580
C32         C  0.71720484  0.77992479  0.25063863     0.02580
C33         C  0.74960706  0.78296521  0.28242165     0.02580
C34         C  0.78685901  0.75712988  0.27967379     0.02580
C35         C  0.78840746  0.72314701  0.24947393     0.02580
C36         C  0.75538390  0.72038544  0.21731527     0.02580
C37         C  0.71352128  0.22246465  0.25124766     0.02580
C38         C  0.71334349  0.25617122  0.22122071     0.02580
C39         C  0.74908845  0.28506855  0.21829032     0.02580
C40         C  0.78170968  0.28389955  0.25059966     0.02580
C41         C  0.78226224  0.25070374  0.28148167     0.02580
C42         C  0.74802797  0.21948143  0.28175337     0.02580
Zn43       Zn  0.56173573  0.00254258  0.78166151     1.49720
Zn44       Zn  0.49909324  0.94550438  0.74025028     1.49360
Zn45       Zn  0.44503203  0.00101867  0.78674613     1.49110
Zn46       Zn  0.49955496  0.05686205  0.74210346     1.49480
O47         O  0.50115241  0.99992558  0.76311007    -1.83830
O48         O  0.59580864  0.94714170  0.78082872    -0.74460
O49         O  0.44635125  0.91012974  0.74566695    -0.74280
O50         O  0.47872607  0.01437324  0.83359248    -0.73800
O51         O  0.55095769  0.90814003  0.74511868    -0.74480
O52         O  0.54983029  0.02052655  0.83718736    -0.74070
O53         O  0.40800009  0.94664531  0.78798162    -0.74660
O54         O  0.44527961  0.09305113  0.74647487    -0.74050
O55         O  0.49522039  0.96686603  0.68788732    -0.74810
O56         O  0.40292405  0.04985097  0.77781577    -0.74200
O57         O  0.50097207  0.03686101  0.68775188    -0.74660
O58         O  0.55154696  0.09549405  0.75009904    -0.74570
O59         O  0.60057773  0.04887012  0.75925618    -0.74360
C60         C  0.58695373  0.91253321  0.76310893     0.77430
C61         C  0.41235827  0.91419948  0.76575849     0.77920
C62         C  0.51299295  0.02293467  0.85308914     0.76880
C63         C  0.40880532  0.08522998  0.76158942     0.77250
C64         C  0.49728849  0.00161232  0.67027538     0.78390
C65         C  0.59077758  0.08646433  0.75329976     0.77440
Zn66       Zn  0.50005307  0.27128260  0.94232236     1.49720
Zn67       Zn  0.55675041  0.23987666  0.99430707     1.49360
Zn68       Zn  0.49985411  0.26271918  0.05605211     1.49110
Zn69       Zn  0.44148566  0.22556250  0.99954227     1.49480
O70         O  0.49438379  0.25117661  0.99854124    -1.83830
O71         O  0.54563598  0.25061453  0.90031076    -0.74460
O72         O  0.59392001  0.24317409  0.04851472    -0.74280
O73         O  0.52852205  0.30834115  0.03574999    -0.73800
O74         O  0.59616363  0.25936030  0.94664116    -0.74480
O75         O  0.52658875  0.31983802  0.96670971    -0.74070
O76         O  0.54524228  0.24226957  0.09632547    -0.74660
O77         O  0.40700303  0.22644171  0.05534595    -0.74050
O78         O  0.54345020  0.18548996  0.97688355    -0.74810
O79         O  0.44539768  0.27306533  0.08888258    -0.74200
O80         O  0.47256303  0.17774026  0.98737215    -0.74660
O81         O  0.40309586  0.23566451  0.94919340    -0.74570
O82         O  0.44303305  0.27495006  0.90953899    -0.74360
C83         C  0.58521396  0.25453847  0.90878481     0.77430
C84         C  0.58434283  0.24297929  0.08680976     0.77920
C85         C  0.53851029  0.32893845  0.00411832     0.76880
C86         C  0.41206543  0.25031395  0.08694502     0.77250
C87         C  0.50907463  0.16448630  0.97652283     0.78390
C88         C  0.40796008  0.25546912  0.91554747     0.77440
Zn89       Zn  0.50238925  0.95049916  0.20519709     1.49720
Zn90       Zn  0.45298949  0.99863233  0.27284162     1.49360
Zn91       Zn  0.56659427  0.99803586  0.25046661     1.49110
Zn92       Zn  0.49907788  0.04629894  0.21118114     1.49480
O93         O  0.50495979  0.99556131  0.24329308    -1.83830
O94         O  0.44581217  0.91553317  0.21431982    -0.74460
O95         O  0.49191929  0.00752823  0.31849858    -0.74280
O96         O  0.59804538  0.94529024  0.25206579    -0.73800
O97         O  0.41799349  0.94440582  0.27026321    -0.74480
O98         O  0.55618113  0.90975978  0.20939615    -0.74070
O99         O  0.56281691  0.01397305  0.30397273    -0.74660
O100        O  0.55407072  0.08564301  0.21743250    -0.74050
O101        O  0.40947687  0.04848456  0.26876443    -0.74810
O102        O  0.60583266  0.04258248  0.22919107    -0.74200
O103        O  0.44642023  0.08726341  0.22697978    -0.74660
O104        O  0.49672224  0.00156639  0.15876569    -0.74570
O105        O  0.49837339  0.99843493  0.16072166    -0.74360
C106        C  0.41728420  0.91602267  0.24253577     0.77430
C107        C  0.53126405  0.01520758  0.32754042     0.77920
C108        C  0.59044915  0.91258445  0.23158407     0.76880
C109        C  0.59382555  0.07931069  0.22367900     0.77250
C110        C  0.41316340  0.08217269  0.24858855     0.78390
C111        C  0.48316320  0.03312102  0.17528585     0.77440
C112        C  0.48885407  0.98187973  0.01321816     0.00860
C113        C  0.47702146  0.01710784  0.03192190     0.00860
Zn114      Zn  0.56458850  0.76186777  0.99691734     1.49720
Zn115      Zn  0.49871909  0.73041196  0.94259416     1.49360
Zn116      Zn  0.50429610  0.71730848  0.05465849     1.49110
Zn117      Zn  0.44973663  0.76153459  0.00167919     1.49480
O118        O  0.50770101  0.74198753  0.00148194    -1.83830
O119        O  0.60112501  0.74747831  0.94830769    -0.74460
O120        O  0.47137616  0.68063217  0.95850159    -0.74280
O121        O  0.56207148  0.71486329  0.08549713    -0.73800
O122        O  0.55154970  0.72516694  0.90511088    -0.74480
O123        O  0.59889131  0.76125258  0.04999169    -0.74070
O124        O  0.48439147  0.66969401  0.02723335    -0.74660
O125        O  0.41303700  0.76150554  0.05390333    -0.74050
O126        O  0.45325783  0.75762789  0.90567849    -0.74810
O127        O  0.45510506  0.72898095  0.09671405    -0.74200
O128        O  0.40685173  0.75028336  0.95414389    -0.74660
O129        O  0.47624726  0.81273532  0.99393490    -0.74570
O130        O  0.54815238  0.81559129  0.98599484    -0.74360
C131        C  0.59021416  0.73566906  0.91203401     0.77430
C132        C  0.46839383  0.65974957  0.99188859     0.77920
C133        C  0.59418399  0.73929456  0.08223623     0.76880
C134        C  0.41932013  0.74605602  0.08951458     0.77250
C135        C  0.41448814  0.75498546  0.91601566     0.78390
C136        C  0.51152288  0.83147922  0.98773739     0.77440
Zn137      Zn  0.73484605  0.50517186  0.93785991     1.49720
Zn138      Zn  0.77136268  0.44744750  0.99865668     1.49360
Zn139      Zn  0.77130624  0.56043413  0.99938186     1.49110
Zn140      Zn  0.71971937  0.50260486  0.05013689     1.49480
O141        O  0.74915010  0.50308507  0.99932729    -1.83830
O142        O  0.74270548  0.45216048  0.90350831    -0.74460
O143        O  0.82074101  0.47444141  0.98175384    -0.74280
O144        O  0.75528008  0.60065713  0.95099489    -0.73800
O145        O  0.75931822  0.40573652  0.94998544    -0.74480
O146        O  0.75474577  0.55362082  0.90166742    -0.74070
O147        O  0.82734571  0.54363893  0.98421973    -0.74660
O148        O  0.72461489  0.55289767  0.09103756    -0.74050
O149        O  0.77763344  0.41448988  0.05381100    -0.74810
O150        O  0.76783016  0.59281309  0.05545361    -0.74200
O151        O  0.72431200  0.44540690  0.08428184    -0.74660
O152        O  0.67381204  0.51435984  0.01160738    -0.74570
O153        O  0.67567165  0.51577075  0.94161705    -0.74360
C154        C  0.75170653  0.41490374  0.91215804     0.77430
C155        C  0.84090117  0.50764458  0.97511315     0.77920
C156        C  0.75555814  0.59150903  0.91241482     0.76880
C157        C  0.74602350  0.58650114  0.08814052     0.77250
C158        C  0.75128760  0.41560181  0.08351827     0.78390
C159        C  0.65701103  0.51985810  0.97589523     0.77440
Zn160      Zn  0.21174584  0.55164815  0.00275632     1.49720
Zn161      Zn  0.23552565  0.44018749  0.00210165     1.49360
Zn162      Zn  0.26817021  0.50182316  0.94833488     1.49110
Zn163      Zn  0.26542472  0.50240575  0.06163392     1.49480
O164        O  0.24440555  0.50007682  0.00316876    -1.83830
O165        O  0.15819094  0.51852374  0.00962895    -0.74460
O166        O  0.23505223  0.40489904  0.95002938    -0.74280
O167        O  0.26349521  0.55243956  0.91110344    -0.73800
O168        O  0.18086165  0.45221155  0.00716152    -0.74480
O169        O  0.21837331  0.58817951  0.94789650    -0.74070
O170        O  0.26694199  0.44922230  0.90947728    -0.74660
O171        O  0.32117296  0.52095839  0.04671275    -0.74050
O172        O  0.24507880  0.40253489  0.05202313    -0.74810
O173        O  0.31804981  0.51228202  0.97727293    -0.74200
O174        O  0.26454416  0.44815928  0.09895926    -0.74660
O175        O  0.24727379  0.54899740  0.09876408    -0.74570
O176        O  0.22195430  0.59293576  0.05377781    -0.74360
C177        C  0.15270577  0.47904236  0.01006315     0.77430
C178        C  0.25002071  0.41358061  0.91490588     0.77920
C179        C  0.24162474  0.58478866  0.91558180     0.76880
C180        C  0.33753023  0.52155516  0.01071616     0.77250
C181        C  0.25450363  0.41074619  0.08956439     0.78390
C182        C  0.23524683  0.58532047  0.09066174     0.77440
Zn183      Zn  0.00083534  0.55763336  0.25361870     1.49720
Zn184      Zn  0.05304568  0.49999070  0.21884705     1.49360
Zn185      Zn  0.00410565  0.44979454  0.28150358     1.49110
Zn186      Zn  0.93921559  0.50125151  0.23634240     1.49480
O187        O  0.00007016  0.49598315  0.24691973    -1.83830
O188        O  0.05068364  0.59499187  0.23643644    -0.74460
O189        O  0.08716671  0.44291703  0.21759358    -0.74280
O190        O  0.01193272  0.48766682  0.32841212    -0.73800
O191        O  0.09739597  0.54583641  0.23854605    -0.74480
O192        O  0.00973817  0.55587565  0.31053662    -0.74070
O193        O  0.05763550  0.41231877  0.27159237    -0.74660
O194        O  0.90638654  0.44722395  0.23604668    -0.74050
O195        O  0.01914248  0.52401189  0.17165058    -0.74810
O196        O  0.94764313  0.41343862  0.28055573    -0.74200
O197        O  0.94784450  0.52539631  0.18318644    -0.74660
O198        O  0.90070826  0.54395707  0.26506123    -0.74570
O199        O  0.94620293  0.59112555  0.24601456    -0.74360
C200        C  0.08941414  0.58443546  0.23919790     0.77430
C201        C  0.08662191  0.41317351  0.24401499     0.77920
C202        C  0.01392486  0.52671033  0.33607100     0.76880
C203        C  0.91312156  0.41594024  0.25892497     0.77250
C204        C  0.98055704  0.53391659  0.16173300     0.78390
C205        C  0.90865290  0.58170008  0.25731561     0.77440
C206        C  0.01486839  0.47136295  0.02859179     0.00860
C207        C  0.01144337  0.49272673  0.99227019     0.00860
Zn208      Zn  0.99297519  0.56241110  0.74064186     1.49720
Zn209      Zn  0.05646016  0.50337602  0.76740855     1.49360
Zn210      Zn  0.94243540  0.50357247  0.76556414     1.49110
Zn211      Zn  0.99859549  0.45486641  0.71135462     1.49480
O212        O  0.00062194  0.50193840  0.74552234    -1.83830
O213        O  0.04608398  0.59899204  0.74228664    -0.74460
O214        O  0.03254024  0.51074438  0.81969203    -0.74280
O215        O  0.90212108  0.54995600  0.74567130    -0.73800
O216        O  0.09449813  0.55299458  0.75795301    -0.74480
O217        O  0.94724537  0.59494386  0.77049133    -0.74070
O218        O  0.96018882  0.51651327  0.82171112    -0.74660
O219        O  0.95044501  0.41186529  0.72214251    -0.74050
O220        O  0.09266176  0.45106752  0.76139343    -0.74810
O221        O  0.90860341  0.44872265  0.76204162    -0.74200
O222        O  0.05769599  0.42291985  0.70824847    -0.74660
O223        O  0.97925941  0.49240494  0.66794480    -0.74570
O224        O  0.97028240  0.55985186  0.68627472    -0.74360
C225        C  0.08467340  0.58999728  0.74978122     0.77430
C226        C  0.99741787  0.51609661  0.83806482     0.77920
C227        C  0.90965698  0.58678984  0.75776753     0.76880
C228        C  0.91629269  0.41518703  0.74274308     0.77250
C229        C  0.08997259  0.42320549  0.73336314     0.78390
C230        C  0.96821029  0.53002831  0.66066694     0.77440
Zn231      Zn  0.99794439  0.71484115  0.55013154     1.49720
Zn232      Zn  0.94538151  0.77364412  0.50557496     1.49360
Zn233      Zn  0.06000070  0.76630114  0.50102301     1.49110
Zn234      Zn  0.99706076  0.73377926  0.43939660     1.49480
O235        O  0.00090785  0.74686864  0.49920566    -1.83830
O236        O  0.94810653  0.72286466  0.59220195    -0.74460
O237        O  0.97109991  0.82527570  0.51911041    -0.74280
O238        O  0.09894335  0.75160639  0.54897773    -0.73800
O239        O  0.90638034  0.76247250  0.55495957    -0.74480
O240        O  0.05469807  0.71444659  0.58631800    -0.74070
O241        O  0.04311165  0.82023576  0.51372713    -0.74660
O242        O  0.05150507  0.73581309  0.40378225    -0.74050
O243        O  0.90608454  0.77634001  0.45298867    -0.74810
O244        O  0.09686311  0.76469572  0.44790529    -0.74200
O245        O  0.94968202  0.75742145  0.40374488    -0.74660
O246        O  0.97980443  0.67825309  0.44701441    -0.74570
O247        O  0.98425362  0.66666147  0.51674183    -0.74360
C248        C  0.91343444  0.74264243  0.58818474     0.77430
C249        C  0.00896974  0.83953084  0.52061866     0.77920
C250        C  0.09127693  0.73174153  0.58182608     0.76880
C251        C  0.08853882  0.75049998  0.41170589     0.77250
C252        C  0.91325398  0.76941483  0.41473130     0.78390
C253        C  0.97684795  0.65577430  0.47901199     0.77440
Zn254      Zn  0.75777065  0.99916714  0.44344195     1.49720
Zn255      Zn  0.71532612  0.05527619  0.50106204     1.49360
Zn256      Zn  0.71477633  0.94190570  0.50260018     1.49110
Zn257      Zn  0.76487680  0.00188793  0.55605527     1.49480
O258        O  0.73821799  0.00017572  0.50044632    -1.83830
O259        O  0.75997025  0.05402464  0.40873423    -0.74460
O260        O  0.66438764  0.02700882  0.51227504    -0.74280
O261        O  0.72100361  0.90367722  0.45084560    -0.73800
O262        O  0.71674742  0.09114913  0.44618986    -0.74480
O263        O  0.73976633  0.94998412  0.40468537    -0.74070
O264        O  0.65701144  0.95702643  0.51298109    -0.74660
O265        O  0.75751871  0.95038073  0.59461771    -0.74050
O266        O  0.72413686  0.09503357  0.55087814    -0.74810
O267        O  0.72951728  0.90459884  0.55137726    -0.74200
O268        O  0.76097483  0.05586216  0.59287238    -0.74660
O269        O  0.81930355  0.99597372  0.53265951    -0.74570
O270        O  0.81292787  0.98606676  0.46311907    -0.74360
C271        C  0.73895980  0.08727211  0.41343042     0.77430
C272        C  0.64340157  0.99366636  0.51757442     0.77920
C273        C  0.73144118  0.91233914  0.41383078     0.76880
C274        C  0.74380309  0.91363218  0.58732321     0.77250
C275        C  0.74255083  0.09025270  0.58585757     0.78390
C276        C  0.83379984  0.98654439  0.49710065     0.77440
Zn277      Zn  0.24435058  0.99847417  0.56481407     1.49720
Zn278      Zn  0.27575703  0.05836130  0.50516770     1.49360
Zn279      Zn  0.27440050  0.94300142  0.50328608     1.49110
Zn280      Zn  0.23058022  0.00045743  0.44716459     1.49480
O281        O  0.25646284  0.00009936  0.50189816    -1.83830
O282        O  0.25898151  0.04933063  0.60101404    -0.74460
O283        O  0.33192913  0.04190853  0.52182759    -0.74280
O284        O  0.26328668  0.90095319  0.55119322    -0.73800
O285        O  0.25601748  0.09644785  0.55254818    -0.74480
O286        O  0.25649273  0.94707798  0.60025349    -0.74070
O287        O  0.32477970  0.97152692  0.51753367    -0.74660
O288        O  0.23242086  0.94730043  0.40962034    -0.74050
O289        O  0.27318832  0.09304337  0.44985861    -0.74810
O290        O  0.27604856  0.90976829  0.44686194    -0.74200
O291        O  0.23040405  0.05433944  0.41127992    -0.74660
O292        O  0.19205087  0.00116271  0.49202809    -0.74570
O293        O  0.18385890  0.99916416  0.56109979    -0.74360
C294        C  0.25685158  0.08726072  0.59086963     0.77430
C295        C  0.34570142  0.00492828  0.52432038     0.77920
C296        C  0.25964368  0.90931829  0.58958450     0.76880
C297        C  0.25419186  0.91449150  0.41339204     0.77250
C298        C  0.25118622  0.08822638  0.41640027     0.78390
C299        C  0.16974113  0.00137837  0.52416771     0.77440
Zn300      Zn  0.99180507  0.20425171  0.54821762     1.49720
Zn301      Zn  0.95458288  0.27512901  0.50410030     1.49360
Zn302      Zn  0.06336882  0.23775138  0.49702128     1.49110
Zn303      Zn  0.99388549  0.23304680  0.43952148     1.49480
O304        O  0.00152107  0.23736980  0.50076243    -1.83830
O305        O  0.94420687  0.22042588  0.58842178    -0.74460
O306        O  0.99842296  0.31871084  0.49502697    -0.74280
O307        O  0.09549186  0.23035198  0.54885469    -0.73800
O308        O  0.92032961  0.27718103  0.55951510    -0.74480
O309        O  0.04838534  0.19779155  0.58671388    -0.74070
O310        O  0.06566548  0.29306303  0.49079193    -0.74660
O311        O  0.04680877  0.23338465  0.40187828    -0.74050
O312        O  0.90661529  0.26750200  0.45680225    -0.74810
O313        O  0.09906288  0.22370472  0.44626131    -0.74200
O314        O  0.95146681  0.26645859  0.40650241    -0.74660
O315        O  0.96224586  0.18280627  0.44159678    -0.74570
O316        O  0.96241708  0.16541204  0.50938494    -0.74360
C317        C  0.91840199  0.25044259  0.58856458     0.77430
C318        C  0.03906424  0.32163426  0.48936709     0.77920
C319        C  0.08576233  0.21414842  0.58293123     0.76880
C320        C  0.08646026  0.22950389  0.40909739     0.77250
C321        C  0.91304836  0.26662520  0.41784716     0.78390
C322        C  0.95047653  0.15983713  0.47129677     0.77440
C323        C  0.00716337  0.00150250  0.51518412     0.00860
C324        C  0.01990434  0.03689363  0.49516453     0.00860
C325        C  0.01333711  0.50272699  0.52396686     0.00860
C326        C  0.01762786  0.47793911  0.49122342     0.00860
C327        C  0.49722609  0.01427564  0.50314403     0.00860
C328        C  0.48448520  0.98467964  0.47426119     0.00860
C329        C  0.48782823  0.47077692  0.99040648     0.00860
C330        C  0.50788763  0.50536395  0.00622974     0.00860
C331        C  0.28205989  0.24729722  0.21911555     0.02580
C332        C  0.28228951  0.21575637  0.25089042     0.02580
C333        C  0.24937073  0.21570647  0.28180313     0.02580
C334        C  0.21724267  0.24756824  0.28089011     0.02580
C335        C  0.21728625  0.27937567  0.24933114     0.02580
C336        C  0.25076761  0.27978937  0.21928105     0.02580
C337        C  0.14597540  0.22267785  0.30500127    -0.05480
C338        C  0.18281410  0.24658890  0.31322310     0.00440
C339        C  0.18623459  0.26732619  0.35218371    -0.08130
C340        C  0.15503446  0.25962345  0.38265561    -0.05500
C341        C  0.11850889  0.23483828  0.37477429     0.00430
C342        C  0.11269790  0.21858007  0.33399679    -0.08040
C343        C  0.07134331  0.19759986  0.32069772     0.62340
H344        H  0.14313632  0.20757617  0.27509714     0.13040
H345        H  0.15850454  0.27456593  0.41270869     0.13050
C346        C  0.22054335  0.29942268  0.36260929     0.62580
F347        F  0.07309826  0.18200722  0.28073141    -0.22590
F348        F  0.03875359  0.22597818  0.32164757    -0.19920
F349        F  0.06236506  0.16525784  0.34710953    -0.19600
F350        F  0.20194447  0.33786581  0.36515729    -0.19650
F351        F  0.25245071  0.30145964  0.33366892    -0.19970
F352        F  0.23913946  0.29076848  0.40057398    -0.22650
C353        C  0.91998940  0.09859544  0.49635242    -0.05480
C354        C  0.92751058  0.12155254  0.46047161     0.00440
C355        C  0.94948676  0.10154095  0.42874888    -0.08130
C356        C  0.98271357  0.07663367  0.44193095    -0.05500
C357        C  0.98818073  0.06803830  0.48467878     0.00430
C358        C  0.95640787  0.08017241  0.51326642    -0.08040
C359        C  0.96230632  0.08016578  0.56020903     0.62340
H360        H  0.89595792  0.10950129  0.51742575     0.13040
H361        H  0.00390004  0.06388347  0.41904742     0.13050
C362        C  0.94836367  0.11647591  0.38430888     0.62580
F363        F  0.95844654  0.11985032  0.57563732    -0.22590
F364        F  0.00198496  0.06649094  0.57253076    -0.19920
F365        F  0.93107033  0.05603975  0.57791493    -0.19600
F366        F  0.98579412  0.13749349  0.37580939    -0.19650
F367        F  0.91446367  0.14264786  0.37767782    -0.19970
F368        F  0.94455490  0.08350340  0.35713656    -0.22650
C369        C  0.03078148  0.37788591  0.44856433    -0.05480
C370        C  0.05616103  0.36015680  0.47896368     0.00440
C371        C  0.07358818  0.38294574  0.51239049    -0.08130
C372        C  0.05782699  0.42190784  0.51851540    -0.05500
C373        C  0.02345343  0.43479861  0.49405045     0.00430
C374        C  0.00618292  0.40978220  0.46188929    -0.08040
C375        C  0.96133426  0.41325269  0.44439113     0.62340
H376        H  0.01903956  0.35892291  0.42280334     0.13040
H377        H  0.07218232  0.44225714  0.54166856     0.13050
C378        C  0.10582007  0.36500795  0.54238518     0.62580
F379        F  0.94165899  0.37472611  0.44438547    -0.22590
F380        F  0.96239591  0.42751765  0.40407167    -0.19920
F381        F  0.93685454  0.43893707  0.46824112    -0.19600
F382        F  0.14032759  0.35145163  0.52029259    -0.19650
F383        F  0.08789500  0.33231726  0.56378062    -0.19970
F384        F  0.12010725  0.39402665  0.57123446    -0.22650
C385        C  0.23572626  0.11153303  0.34211219    -0.05480
C386        C  0.24975205  0.12189264  0.38276226     0.00440
C387        C  0.25955097  0.16451901  0.39034806    -0.08130
C388        C  0.26115904  0.19293734  0.35658149    -0.05500
C389        C  0.24836595  0.18225441  0.31572176     0.00430
C390        C  0.23270267  0.14100249  0.30943261    -0.08040
C391        C  0.20999381  0.12648056  0.27006099     0.62340
H392        H  0.22543173  0.07997615  0.33586881     0.13040
H393        H  0.27156106  0.22446684  0.36225204     0.13050
C394        C  0.26480857  0.18087930  0.43434389     0.62580
F395        F  0.23116438  0.09311683  0.25361171    -0.22590
F396        F  0.20684404  0.15675358  0.24015322    -0.19920
F397        F  0.16914706  0.11382476  0.27971533    -0.19600
F398        F  0.30268468  0.16755194  0.45157777    -0.19650
F399        F  0.23107581  0.16724097  0.45806719    -0.19970
F400        F  0.26508607  0.22354977  0.43572874    -0.22650
C401        C  0.11815537  0.05172168  0.52173384    -0.05480
C402        C  0.12783407  0.01002883  0.51489409     0.00440
C403        C  0.11011111  0.98784016  0.48056059    -0.08130
C404        C  0.08006915  0.00849200  0.45653641    -0.05500
C405        C  0.06113577  0.04292637  0.47465568     0.00430
C406        C  0.08736399  0.06972405  0.49710704    -0.08040
C407        C  0.08704579  0.11544503  0.48861823     0.62340
H408        H  0.13841611  0.07095122  0.54158493     0.13040
H409        H  0.06619165  0.99427326  0.42908783     0.13050
C410        C  0.12509081  0.94420147  0.46957350     0.62580
F411        F  0.12537526  0.13382568  0.50042593    -0.22590
F412        F  0.05449662  0.13380182  0.50993371    -0.19920
F413        F  0.08109125  0.12185673  0.44649768    -0.19600
F414        F  0.13662729  0.92278546  0.50511456    -0.19650
F415        F  0.15964844  0.94704178  0.44433822    -0.19970
F416        F  0.09475890  0.92088489  0.44855125    -0.22650
C417        C  0.39364428  0.00308400  0.47442164    -0.05480
C418        C  0.38825685  0.99818367  0.51735788     0.00440
C419        C  0.40705227  0.96452917  0.53863417    -0.08130
C420        C  0.43599923  0.94052792  0.51629907    -0.05500
C421        C  0.44764028  0.95480656  0.47697501     0.00430
C422        C  0.41409361  0.97182949  0.45424291    -0.08040
C423        C  0.40226740  0.96082081  0.41011552     0.62340
H424        H  0.37329901  0.02328077  0.45610208     0.13040
H425        H  0.45387495  0.91621962  0.53120026     0.13050
C426        C  0.39552944  0.95492775  0.58318110     0.62580
F427        F  0.35993526  0.94862987  0.40854247    -0.22590
F428        F  0.42664708  0.92878900  0.39563662    -0.19920
F429        F  0.40749413  0.99479061  0.38472387    -0.19600
F430        F  0.35755848  0.93326486  0.58406828    -0.19650
F431        F  0.39067156  0.99117695  0.60554054    -0.19970
F432        F  0.42649841  0.93162860  0.60241161    -0.22650
C433        C  0.89523659  0.96181665  0.53279483    -0.05480
C434        C  0.87733437  0.97678981  0.49579626     0.00440
C435        C  0.90255724  0.99066548  0.46307453    -0.08130
C436        C  0.94515037  0.99144207  0.47083707    -0.05500
C437        C  0.96147813  0.99038174  0.51180979     0.00430
C438        C  0.93668188  0.97253569  0.54341518    -0.08040
C439        C  0.94995954  0.96731896  0.58837877     0.62340
H440        H  0.87488823  0.94824929  0.55614840     0.13040
H441        H  0.96583916  0.99864701  0.44547106     0.13050
C442        C  0.88620966  0.01006458  0.42285308     0.62580
F443        F  0.91686676  0.97775674  0.61419819    -0.22590
F444        F  0.98376833  0.99264005  0.59899401    -0.19920
F445        F  0.96009929  0.92651707  0.59559925    -0.19600
F446        F  0.86341346  0.04535398  0.43154867    -0.19650
F447        F  0.86104683  0.98273573  0.40086204    -0.19970
F448        F  0.91883830  0.02087477  0.39676804    -0.22650
C449        C  0.58573181  0.00475325  0.47753478    -0.05480
C450        C  0.59999077  0.00089908  0.51865556     0.00440
C451        C  0.58580134  0.02910570  0.54934564    -0.08130
C452        C  0.55438058  0.05740523  0.53678718    -0.05500
C453        C  0.53256893  0.04742377  0.49913011     0.00430
C454        C  0.56231216  0.03963484  0.46886309    -0.08040
C455        C  0.58700765  0.07447317  0.44977740     0.62340
H456        H  0.60432863  0.99165450  0.45255650     0.13040
H457        H  0.54149142  0.07900550  0.55877417     0.13050
C458        C  0.60627046  0.03073067  0.59212160     0.62580
F459        F  0.61856823  0.08846575  0.47683804    -0.22590
F460        F  0.56097737  0.10708524  0.44008044    -0.19920
F461        F  0.60549922  0.05995494  0.41431155    -0.19600
F462        F  0.64462406  0.05172539  0.59080639    -0.19650
F463        F  0.61421488  0.99110285  0.60570728    -0.19970
F464        F  0.58026335  0.05004594  0.62027907    -0.22650
C465        C  0.03667875  0.90085648  0.55275570    -0.05480
C466        C  0.01352452  0.88186476  0.52062799     0.00440
C467        C  0.00522490  0.90105736  0.48272087    -0.08130
C468        C  0.02115631  0.94011986  0.47867932    -0.05500
C469        C  0.03148755  0.96351501  0.51443569     0.00430
C470        C  0.04421099  0.94308967  0.55110450    -0.08040
C471        C  0.06714316  0.96341964  0.58740763     0.62340
H472        H  0.04668081  0.88321781  0.57966070     0.13040
H473        H  0.01586665  0.95506636  0.44945655     0.13050
C474        C  0.97877703  0.88114954  0.44743849     0.62580
F475        F  0.04791283  0.95240008  0.62417339    -0.22590
F476        F  0.06758744  0.00596461  0.58421594    -0.19920
F477        F  0.10856408  0.94959023  0.58889661    -0.19600
F478        F  0.93803384  0.87273672  0.46109491    -0.19650
F479        F  0.99715621  0.84476838  0.43438082    -0.19970
F480        F  0.97503263  0.90681373  0.41337042    -0.22650
C481        C  0.01746996  0.60047907  0.46778210    -0.05480
C482        C  0.97559232  0.61321393  0.47239085     0.00440
C483        C  0.94575570  0.58993952  0.49442002    -0.08130
C484        C  0.96013995  0.55492659  0.51358964    -0.05500
C485        C  0.00368479  0.54598813  0.51513894     0.00430
C486        C  0.03354950  0.57194912  0.49524017    -0.08040
C487        C  0.08136332  0.57233027  0.50245839     0.62340
H488        H  0.03991567  0.61979603  0.45097678     0.13040
H489        H  0.93664400  0.53339031  0.52465750     0.13050
C490        C  0.90362738  0.60702765  0.50776716     0.62580
F491        F  0.09356948  0.61023893  0.51899930    -0.22590
F492        F  0.10232220  0.56768965  0.46543816    -0.19920
F493        F  0.09446207  0.54209843  0.52941802    -0.19600
F494        F  0.88711135  0.63308841  0.47811026    -0.19650
F495        F  0.91042629  0.62878294  0.54412479    -0.19970
F496        F  0.87419660  0.57576409  0.51482628    -0.22650
C497        C  0.94148961  0.50948807  0.59725506    -0.05480
C498        C  0.96424237  0.54062414  0.61825335     0.00440
C499        C  0.00638552  0.54970169  0.60740990    -0.08130
C500        C  0.02971959  0.51653840  0.59222699    -0.05500
C501        C  0.00754037  0.48825451  0.56672838     0.00430
C502        C  0.96460208  0.47911606  0.57666983    -0.08040
C503        C  0.94357889  0.43734308  0.57041327     0.62340
H504        H  0.90908197  0.50269413  0.60645749     0.13040
H505        H  0.06376625  0.51994012  0.58965406     0.13050
C506        C  0.02850045  0.58972986  0.62009297     0.62580
F507        F  0.92980663  0.42282380  0.60830183    -0.22590
F508        F  0.97098531  0.40858653  0.55453059    -0.19920
F509        F  0.90865899  0.44104093  0.54423765    -0.19600
F510        F  0.05917522  0.58205862  0.65015056    -0.19650
F511        F  0.99986674  0.61802360  0.63533231    -0.19970
F512        F  0.04774400  0.60712851  0.58613826    -0.22650
C513        C  0.02064907  0.45761076  0.92759962    -0.05480
C514        C  0.03743164  0.48817485  0.95477424     0.00440
C515        C  0.04970257  0.52625162  0.93702282    -0.08130
C516        C  0.03028713  0.53770292  0.90011360    -0.05500
C517        C  0.00149189  0.51092498  0.88059748     0.00430
C518        C  0.99659865  0.46987383  0.89357172    -0.08040
C519        C  0.96590921  0.43982387  0.87144112     0.62340
H520        H  0.01466124  0.42691757  0.93854259     0.13040
H521        H  0.03928116  0.56638460  0.88500368     0.13050
C522        C  0.08435718  0.55377059  0.95480856     0.62580
F523        F  0.96446599  0.40173126  0.89052850    -0.22590
F524        F  0.97820895  0.43351661  0.83094709    -0.19920
F525        F  0.92530786  0.45606307  0.87127284    -0.19600
F526        F  0.12283127  0.53907263  0.94152522    -0.19650
F527        F  0.08321747  0.55433757  0.99738858    -0.19970
F528        F  0.08063585  0.59413915  0.94117490    -0.22650
C529        C  0.19116947  0.35219007  0.26482657    -0.05480
C530        C  0.18247698  0.31274306  0.24746083     0.00440
C531        C  0.14205107  0.30742754  0.22693576    -0.08130
C532        C  0.11198432  0.34030864  0.22655532    -0.05500
C533        C  0.12079080  0.37959638  0.24402187     0.00430
C534        C  0.16159561  0.38544191  0.26308295    -0.08040
C535        C  0.17386920  0.42718969  0.28140685     0.62340
H536        H  0.22189702  0.35701362  0.27965983     0.13040
H537        H  0.08120644  0.33529512  0.21164849     0.13050
C538        C  0.12875207  0.26832079  0.20382713     0.62580
F539        F  0.21430499  0.42716960  0.29899573    -0.22590
F540        F  0.14539741  0.43792465  0.31182056    -0.19920
F541        F  0.17306310  0.45663929  0.25048503    -0.19600
F542        F  0.09253350  0.25197562  0.22162275    -0.19650
F543        F  0.15963523  0.23832621  0.20390784    -0.19970
F544        F  0.11949435  0.27805361  0.16298602    -0.22650
C545        C  0.94233629  0.52531178  0.10043325    -0.05480
C546        C  0.97255986  0.55055413  0.12080857     0.00440
C547        C  0.01018018  0.56032099  0.10040231    -0.08130
C548        C  0.02536407  0.53030605  0.07387189    -0.05500
C549        C  0.99983461  0.49567038  0.06326281     0.00430
C550        C  0.95783855  0.49197028  0.07788688    -0.08040
C551        C  0.93096006  0.45272834  0.07566698     0.62340
H552        H  0.91069258  0.52256086  0.11324241     0.13040
H553        H  0.05690371  0.53386975  0.06152875     0.13050
C554        C  0.03858330  0.59601455  0.11386636     0.62580
F555        F  0.92360024  0.43919893  0.11560012    -0.22590
F556        F  0.95023663  0.42088117  0.05470458    -0.19920
F557        F  0.89232440  0.46091976  0.05673175    -0.19600
F558        F  0.07642952  0.58123715  0.13011731    -0.19650
F559        F  0.01913039  0.61987447  0.14370793    -0.19970
F560        F  0.04733817  0.62060342  0.08002718    -0.22650
C561        C  0.98094915  0.51118475  0.43441709    -0.05480
C562        C  0.01916568  0.49496043  0.44964385     0.00440
C563        C  0.05807286  0.50082531  0.42882901    -0.08130
C564        C  0.05718974  0.52602143  0.39425380    -0.05500
C565        C  0.01815340  0.53783071  0.37759822     0.00070
C566        C  0.98007767  0.53448913  0.39914530    -0.08040
C567        C  0.93747223  0.54664873  0.38018301     0.62340
H568        H  0.95166083  0.50615860  0.45071042     0.13040
H569        H  0.08527792  0.52925099  0.37531238     0.13050
C570        C  0.09914711  0.47853164  0.43993769     0.62580
F571        F  0.90641404  0.54950631  0.41002960    -0.22590
F572        F  0.92446879  0.51726339  0.35118290    -0.19920
F573        F  0.94116287  0.58466654  0.36104803    -0.19600
F574        F  0.09472112  0.43710552  0.43035646    -0.19650
F575        F  0.10932974  0.48270418  0.48140657    -0.19970
F576        F  0.13332619  0.49376529  0.41785459    -0.22650
C577        C  0.22784361  0.30965342  0.15050347    -0.05480
C578        C  0.25252130  0.31420854  0.18694703     0.00440
C579        C  0.27725219  0.35127906  0.19154495    -0.08130
C580        C  0.27703731  0.38133206  0.15941539    -0.05500
C581        C  0.25302194  0.37655125  0.12236685     0.00430
C582        C  0.22719613  0.33979461  0.11844320    -0.08040
C583        C  0.19778232  0.33223778  0.08123032     0.62340
H584        H  0.20872772  0.28175193  0.14737116     0.13040
H585        H  0.29630061  0.40912690  0.16347521     0.13050
C586        C  0.30434134  0.36148154  0.22961338     0.62580
F587        F  0.17239884  0.29734528  0.08609060    -0.22590
F588        F  0.22151978  0.32645768  0.04595756    -0.19920
F589        F  0.17110057  0.36558739  0.07588478    -0.19600
F590        F  0.34624355  0.36652120  0.21794833    -0.19650
F591        F  0.30271751  0.33145412  0.25985522    -0.19970
F592        F  0.29062362  0.39817304  0.24677952    -0.22650
C593        C  0.05676352  0.41276957  0.00404294    -0.05480
C594        C  0.03771492  0.43171557  0.03780849     0.00440
C595        C  0.06643741  0.43786657  0.07079227    -0.08130
C596        C  0.10322855  0.45925408  0.06068880    -0.05500
C597        C  0.11372134  0.46052720  0.01866553     0.00430
C598        C  0.09524358  0.43044189  0.99111699    -0.08040
C599        C  0.11498853  0.41811669  0.95006860     0.62340
H600        H  0.04030697  0.38845862  0.98691311     0.13040
H601        H  0.12408741  0.47222402  0.08464096     0.13050
C602        C  0.05763391  0.42576159  0.11445942     0.62580
F603        F  0.08641018  0.39678775  0.92467165    -0.22590
F604        F  0.14899019  0.39260462  0.95778508    -0.19920
F605        F  0.12892701  0.45270704  0.92875683    -0.19600
F606        F  0.01859190  0.40593717  0.11725442    -0.19650
F607        F  0.05802550  0.46066073  0.13906385    -0.19970
F608        F  0.08914123  0.39940366  0.12814742    -0.22650
C609        C  0.42602378  0.49726558  0.95218551    -0.05480
C610        C  0.44197963  0.46894223  0.98116148     0.00440
C611        C  0.41910387  0.46214873  0.01737008    -0.08130
C612        C  0.40023467  0.49584414  0.03472805    -0.05500
C613        C  0.38222939  0.52373251  0.00682247     0.00430
C614        C  0.39727043  0.52709691  0.96533425    -0.08040
C615        C  0.37708789  0.55662990  0.93387751     0.62340
H616        H  0.43998675  0.49954401  0.92187560     0.13040
H617        H  0.38746373  0.49216410  0.06564402     0.13050
C618        C  0.40765528  0.41982672  0.03348061     0.62580
F619        F  0.40677583  0.57503870  0.90883637    -0.22590
F620        F  0.35500597  0.58764962  0.95387661    -0.19920
F621        F  0.34949274  0.53491280  0.90794222    -0.19600
F622        F  0.42160884  0.41570885  0.07408804    -0.19650
F623        F  0.42478998  0.38899541  0.00931666    -0.19970
F624        F  0.36378537  0.41520774  0.03243312    -0.22650
C625        C  0.90699079  0.53966707  0.95776477    -0.05480
C626        C  0.88285227  0.50325510  0.95944750     0.00440
C627        C  0.90227280  0.46422589  0.96138590    -0.08130
C628        C  0.94354482  0.46432108  0.97451397    -0.05500
C629        C  0.96690737  0.50116094  0.98123456     0.00430
C630        C  0.94874439  0.54028581  0.97221628    -0.08040
C631        C  0.96857339  0.58249339  0.98240418     0.62340
H632        H  0.89093875  0.56846861  0.95164081     0.13040
H633        H  0.95819672  0.43469070  0.98015016     0.13050
C634        C  0.87961546  0.42224795  0.95642903     0.62580
F635        F  0.93845986  0.61347618  0.98239772    -0.22590
F636        F  0.99853334  0.59367983  0.95404703    -0.19920
F637        F  0.98680496  0.58253677  0.02111325    -0.19600
F638        F  0.84900822  0.42405401  0.92529351    -0.19650
F639        F  0.86121823  0.41028521  0.99332844    -0.19970
F640        F  0.90765173  0.39151521  0.94579856    -0.22650
C641        C  0.59803237  0.48194829  0.98561832    -0.05480
C642        C  0.61265098  0.52211872  0.97691159     0.00440
C643        C  0.59680131  0.55632802  0.99938047    -0.08130
C644        C  0.56814855  0.54794839  0.03132948    -0.05500
C645        C  0.54909572  0.50827475  0.03087671     0.00430
C646        C  0.57831492  0.47761720  0.02343334    -0.08040
C647        C  0.60458054  0.46126777  0.05905752     0.62340
H648        H  0.61590629  0.45570669  0.97423952     0.13040
H649        H  0.55336913  0.57337758  0.04741995     0.13050
C650        C  0.61286028  0.59984100  0.99245332     0.62580
F651        F  0.63551357  0.48913222  0.07191101    -0.22590
F652        F  0.62350782  0.42508445  0.04687425    -0.19920
F653        F  0.57947887  0.45425508  0.09275696    -0.19600
F654        F  0.63370892  0.60298932  0.95505478    -0.19650
F655        F  0.64076961  0.61096806  0.02408709    -0.19970
F656        F  0.57905039  0.62682285  0.99189453    -0.22650
C657        C  0.47108028  0.59976439  0.95429137    -0.05480
C658        C  0.45266851  0.61890397  0.98829366     0.00440
C659        C  0.44575657  0.59770182  0.02571195    -0.08130
C660        C  0.46703725  0.56130615  0.03113026    -0.05500
C661        C  0.48866705  0.54397126  0.99807508     0.00430
C662        C  0.49233157  0.56351682  0.95919483    -0.08040
C663        C  0.51884771  0.54969207  0.92265866     0.62340
H664        H  0.47492624  0.61618271  0.92521683     0.13040
H665        H  0.46624389  0.54585444  0.06093967     0.13050
C666        C  0.42332818  0.61627992  0.06258618     0.62580
F667        F  0.54951250  0.57951170  0.91460175    -0.22590
F668        F  0.49311944  0.54522422  0.88773843    -0.19920
F669        F  0.53920416  0.51309112  0.92925660    -0.19600
F670        F  0.40142944  0.65151572  0.05156086    -0.19650
F671        F  0.45289790  0.62622236  0.09342779    -0.19970
F672        F  0.39459741  0.58791354  0.07823811    -0.22650
C673        C  0.53430047  0.88989867  0.02400297    -0.05480
C674        C  0.50942498  0.87406604  0.99104382     0.00440
C675        C  0.47047890  0.89124032  0.97947359    -0.08130
C676        C  0.45402586  0.91959230  0.00645290    -0.05500
C677        C  0.48309656  0.94235075  0.03126931     0.00430
C678        C  0.52125080  0.92461271  0.04494831    -0.08040
C679        C  0.54842648  0.94269268  0.07999038     0.62340
H680        H  0.56241503  0.87371177  0.03467900     0.13040
H681        H  0.42397964  0.93259972  0.99706792     0.13050
C682        C  0.44483500  0.87746229  0.94131199     0.62580
F683        F  0.58837041  0.92497979  0.08158427    -0.22590
F684        F  0.52863329  0.93479910  0.11694229    -0.19920
F685        F  0.55409612  0.98488387  0.07565168    -0.19600
F686        F  0.40723042  0.85893621  0.95352476    -0.19650
F687        F  0.46692057  0.84982157  0.91699907    -0.19970
F688        F  0.43546105  0.91131959  0.91703269    -0.22650
C689        C  0.38720337  0.15354142  0.27069892    -0.05480
C690        C  0.37886064  0.11576662  0.24981883     0.00440
C691        C  0.33850251  0.11183595  0.22921721    -0.08130
C692        C  0.30922391  0.14520869  0.22953234    -0.05500
C693        C  0.31686374  0.18234972  0.25145806     0.00430
C694        C  0.35703928  0.18629664  0.27257954    -0.08040
C695        C  0.37035265  0.22426158  0.29750978     0.62340
H696        H  0.41773395  0.15746016  0.28638347     0.13040
H697        H  0.27980238  0.14259584  0.21196304     0.13050
C698        C  0.32684927  0.07302019  0.20521916     0.62580
F699        F  0.37974988  0.21263453  0.33779618    -0.22590
F700        F  0.33944217  0.25420189  0.29887372    -0.19920
F701        F  0.40645430  0.24153130  0.28030740    -0.19600
F702        F  0.32966422  0.03896988  0.23080676    -0.19650
F703        F  0.35439033  0.06903651  0.17279368    -0.19970
F704        F  0.28596381  0.07411117  0.18876704    -0.22650
C705        C  0.48381936  0.06340572  0.09112467    -0.05480
C706        C  0.46509528  0.02586213  0.07527383     0.00440
C707        C  0.42974668  0.00818689  0.09740935    -0.08130
C708        C  0.41974518  0.02707992  0.13539052    -0.05500
C709        C  0.44931471  0.05521693  0.15237789     0.00430
C710        C  0.46731992  0.08253932  0.12509874    -0.08040
C711        C  0.48173081  0.12563691  0.13665756     0.62340
H712        H  0.50976102  0.07966018  0.07667740     0.13040
H713        H  0.39954584  0.01079427  0.15694251     0.13050
C714        C  0.40640700  0.96814731  0.08686326     0.62580
F715        F  0.47983979  0.15047920  0.10183201    -0.22590
F716        F  0.52317278  0.12534240  0.15139108    -0.19920
F717        F  0.45551450  0.14224310  0.16624770    -0.19600
F718        F  0.43285380  0.93498046  0.09378893    -0.19650
F719        F  0.39150136  0.96904372  0.04667412    -0.19970
F720        F  0.37140909  0.96181711  0.11170126    -0.22650
C721        C  0.55228626  0.98292500  0.38539398    -0.05480
C722        C  0.54043427  0.02115386  0.36885633     0.00440
C723        C  0.51110928  0.04737070  0.38737140    -0.08130
C724        C  0.48635749  0.03007839  0.41715451    -0.05500
C725        C  0.49707454  0.99125346  0.43311170     0.00430
C726        C  0.52767797  0.96546681  0.41590512    -0.08040
C727        C  0.53498669  0.92139015  0.43085524     0.62340
H728        H  0.57557703  0.96422709  0.36961169     0.13040
H729        H  0.46178580  0.04847940  0.43131874     0.13050
C730        C  0.49838738  0.08838555  0.36854467     0.62580
F731        F  0.56600450  0.90187626  0.40818975    -0.22590
F732        F  0.49783610  0.89837824  0.42663808    -0.19920
F733        F  0.54751477  0.92130843  0.47210301    -0.19600
F734        F  0.46126612  0.08325503  0.34545405    -0.19650
F735        F  0.53009869  0.10341409  0.34312794    -0.19970
F736        F  0.49123172  0.11719918  0.39937345    -0.22650
C737        C  0.34006525  0.22968962  0.11514338    -0.05480
C738        C  0.37920341  0.25084732  0.12162019     0.00440
C739        C  0.38578813  0.27042067  0.16126263    -0.08130
C740        C  0.35368612  0.26759575  0.19177673    -0.05500
C741        C  0.31488365  0.24659119  0.18496752     0.00430
C742        C  0.30797906  0.22731295  0.14563340    -0.08040
C743        C  0.26762283  0.20366440  0.13361966     0.62340
H744        H  0.33409824  0.21460879  0.08550341     0.13040
H745        H  0.35846756  0.28236616  0.22164301     0.13050
C746        C  0.42625878  0.29449189  0.17216991     0.62580
F747        F  0.24905301  0.22214163  0.09936260    -0.22590
F748        F  0.23791708  0.20219327  0.16470731    -0.19920
F749        F  0.27792693  0.16347224  0.12334697    -0.19600
F750        F  0.43018043  0.32804178  0.14603961    -0.19650
F751        F  0.46117102  0.26916181  0.16854037    -0.19970
F752        F  0.42619658  0.30956076  0.21244252    -0.22650
C753        C  0.46970977  0.10474934  0.96087532    -0.05480
C754        C  0.51085984  0.12162727  0.96699887     0.00440
C755        C  0.54334470  0.09858508  0.98673434    -0.08130
C756        C  0.53057311  0.06259556  0.00507816    -0.05500
C757        C  0.48721530  0.05355898  0.00878962     0.00430
C758        C  0.45561483  0.07748729  0.99066192    -0.08040
C759        C  0.40945234  0.07595644  0.00478085     0.62340
H760        H  0.44627174  0.12224771  0.94348892     0.13040
H761        H  0.55343828  0.04352328  0.02130893     0.13050
C762        C  0.58687881  0.11555394  0.99966341     0.62580
F763        F  0.40739497  0.08710477  0.04609442    -0.22590
F764        F  0.39247250  0.03661964  0.00008826    -0.19920
F765        F  0.38418551  0.10320529  0.98289227    -0.19600
F766        F  0.58240756  0.14316573  0.03219471    -0.19650
F767        F  0.60586775  0.13486461  0.96677967    -0.19970
F768        F  0.61393906  0.08468184  0.01292382    -0.22650
C769        C  0.56287453  0.39000500  0.97541727    -0.05480
C770        C  0.55807224  0.36840344  0.01267877     0.00440
C771        C  0.53886145  0.38806164  0.04723437    -0.08130
C772        C  0.51132471  0.41939096  0.03784324    -0.05500
C773        C  0.50609251  0.43178158  0.99665452     0.00430
C774        C  0.52807840  0.41377971  0.96399577    -0.08040
C775        C  0.50873280  0.41186935  0.92037088     0.62340
H776        H  0.58140995  0.37582786  0.95117977     0.13040
H777        H  0.49561846  0.43572762  0.06261034     0.13050
C778        C  0.53582887  0.36947892  0.09058359     0.62580
F779        F  0.53313051  0.38863145  0.89383368    -0.22590
F780        F  0.50403354  0.45054290  0.90345599    -0.19920
F781        F  0.46877311  0.39349960  0.92223914    -0.19600
F782        F  0.56867520  0.34235297  0.09764343    -0.19650
F783        F  0.49728482  0.34883945  0.09444254    -0.19970
F784        F  0.53728560  0.39936384  0.12123523    -0.22650
C785        C  0.54420688  0.01767008  0.91977208    -0.05480
C786        C  0.50866523  0.02933384  0.89680976     0.00440
C787        C  0.46727290  0.02323595  0.91202737    -0.08130
C788        C  0.46240309  0.99547481  0.94401606    -0.05500
C789        C  0.49796603  0.98261696  0.96738311     0.00430
C790        C  0.53972547  0.98957022  0.95185165    -0.08040
C791        C  0.57837876  0.96415943  0.96346522     0.62340
H792        H  0.57544308  0.02444560  0.90759080     0.13040
H793        H  0.43065101  0.98967304  0.95520453     0.13050
C794        C  0.42798658  0.04231518  0.89150322     0.62580
F795        F  0.61408785  0.97541791  0.94121776    -0.22590
F796        F  0.57012590  0.92327373  0.95384054    -0.19920
F797        F  0.58871413  0.96863362  0.00472504    -0.19600
F798        F  0.40619450  0.01255904  0.86847289    -0.19650
F799        F  0.43930567  0.07515117  0.86617854    -0.19970
F800        F  0.40035667  0.05728548  0.92027447    -0.22650
C801        C  0.47067735  0.03409543  0.61031622    -0.05480
C802        C  0.49337601  0.00120741  0.62746595     0.00440
C803        C  0.51213337  0.96982387  0.60375538    -0.08130
C804        C  0.50813934  0.97376044  0.56189953    -0.05500
C805        C  0.48643239  0.00724077  0.54460511     0.00430
C806        C  0.46733099  0.03823328  0.56834222    -0.08040
C807        C  0.44704395  0.07737074  0.55152312     0.62340
H808        H  0.45626455  0.05734853  0.62986846     0.13040
H809        H  0.52380013  0.95188680  0.54184427     0.13050
C810        C  0.53663409  0.93309228  0.62147430     0.62580
F811        F  0.40624834  0.08054973  0.56652193    -0.22590
F812        F  0.44473426  0.07831537  0.50872742    -0.19920
F813        F  0.47039100  0.11151628  0.56508239    -0.19600
F814        F  0.50845364  0.90519238  0.63882632    -0.19650
F815        F  0.56589023  0.94604042  0.65142325    -0.19970
F816        F  0.55883635  0.91231175  0.59115581    -0.22650
C817        C  0.89003578  0.25101835  0.34453116    -0.05480
C818        C  0.87764295  0.26251917  0.38472078     0.00440
C819        C  0.83305998  0.26665066  0.39117979    -0.08130
C820        C  0.80381838  0.26149154  0.35703511    -0.05500
C821        C  0.81657360  0.25146545  0.31632047     0.00430
C822        C  0.86124495  0.24447311  0.31091209    -0.08040
C823        C  0.88211807  0.22907611  0.27161269     0.62340
H824        H  0.92351898  0.24587979  0.33906329     0.13040
H825        H  0.77012918  0.26550896  0.36193854     0.13050
C826        C  0.81599887  0.27639444  0.43379207     0.62580
F827        F  0.91279008  0.25723776  0.25967994    -0.22590
F828        F  0.85372388  0.22244541  0.23934192    -0.19920
F829        F  0.90321909  0.19263525  0.27924694    -0.19600
F830        F  0.83418460  0.31282249  0.44857204    -0.19650
F831        F  0.82544190  0.24445226  0.46064366    -0.19970
F832        F  0.77226986  0.28109511  0.43308028    -0.22650
C833        C  0.85366065  0.31513753  0.23281724    -0.05480
C834        C  0.81466197  0.31910339  0.25321335     0.00440
C835        C  0.80775529  0.35675034  0.27503711    -0.08130
C836        C  0.84075230  0.38733797  0.27718777    -0.05500
C837        C  0.88057442  0.38154212  0.25860552     0.00430
C838        C  0.88692368  0.34489261  0.23576678    -0.08040
C839        C  0.92900539  0.33756433  0.21440685     0.62340
H840        H  0.85850877  0.28810683  0.21447654     0.13040
H841        H  0.83560093  0.41629467  0.29323955     0.13050
C842        C  0.76525075  0.36523501  0.29483709     0.62580
F843        F  0.92882886  0.30096191  0.19200947    -0.22590
F844        F  0.96132667  0.33577400  0.24391006    -0.19920
F845        F  0.93753407  0.36949160  0.18727393    -0.19600
F846        F  0.75601501  0.33510594  0.32361139    -0.19650
F847        F  0.73357720  0.36530974  0.26478295    -0.19970
F848        F  0.76505573  0.40323063  0.31476366    -0.22650
C849        C  0.69640915  0.14909853  0.22765814    -0.05480
C850        C  0.68150015  0.18591182  0.24585314     0.00440
C851        C  0.63760418  0.18546545  0.25771663    -0.08130
C852        C  0.61081845  0.15128716  0.24745241    -0.05500
C853        C  0.62549384  0.11513599  0.22886153     0.00430
C854        C  0.66997490  0.11339803  0.22061990    -0.08040
C855        C  0.69007494  0.07381845  0.20551732     0.62340
H856        H  0.72969785  0.14820756  0.21968269     0.13040
H857        H  0.57760026  0.15223004  0.25609599     0.13050
C858        C  0.61558373  0.21903572  0.28133176     0.62580
F859        F  0.73231555  0.07972785  0.19528245    -0.22590
F860        F  0.66848917  0.05909704  0.17070969    -0.19920
F861        F  0.68856286  0.04451759  0.23658811    -0.19600
F862        F  0.58074920  0.23088957  0.25811533    -0.19650
F863        F  0.64206883  0.25191904  0.29080839    -0.19970
F864        F  0.59974882  0.20435132  0.31798472    -0.22650
C865        C  0.71038981  0.17988568  0.34039455    -0.05480
C866        C  0.74660787  0.18440638  0.31506417     0.00440
C867        C  0.77791745  0.15286905  0.32066142    -0.08130
C868        C  0.77661196  0.12567789  0.35532663    -0.05500
C869        C  0.74074077  0.12156722  0.38038050     0.00430
C870        C  0.70562072  0.14673530  0.36930146    -0.08040
C871        C  0.66192407  0.13257386  0.38154915     0.62340
H872        H  0.68434578  0.20085364  0.33569685     0.13040
H873        H  0.80249643  0.10427094  0.36018551     0.13050
C874        C  0.80996992  0.14137633  0.28873690     0.62580
F875        F  0.63027449  0.15219342  0.36001740    -0.22590
F876        F  0.65587768  0.13938600  0.42328439    -0.19920
F877        F  0.65832594  0.09104029  0.37180672    -0.19600
F878        F  0.85005228  0.14545164  0.30617937    -0.19650
F879        F  0.80636839  0.16450964  0.25325395    -0.19970
F880        F  0.80376068  0.10036971  0.27751430    -0.22650
C881        C  0.78541595  0.35350459  0.12205756    -0.05480
C882        C  0.75130142  0.38128084  0.11683790     0.00440
C883        C  0.71500428  0.37207047  0.14050943    -0.08130
C884        C  0.71812470  0.34537420  0.17538236    -0.05500
C885        C  0.75162687  0.31732357  0.18180862     0.00430
C886        C  0.78392228  0.31941118  0.15059958    -0.08040
C887        C  0.81361275  0.28425850  0.14119654     0.62340
H888        H  0.81186568  0.35595996  0.10099265     0.13040
H889        H  0.69272846  0.34522004  0.19656264     0.13050
C890        C  0.67161887  0.38121378  0.12235416     0.62580
F891        F  0.80445272  0.26952818  0.10170291    -0.22590
F892        F  0.80938226  0.25158619  0.16829253    -0.19920
F893        F  0.85524641  0.29856647  0.14185955    -0.19600
F894        F  0.67273301  0.37732263  0.07970775    -0.19650
F895        F  0.65895398  0.42038619  0.13369532    -0.19970
F896        F  0.64190460  0.35271425  0.13479380    -0.22650
C897        C  0.68883731  0.23472961  0.15103072    -0.05480
C898        C  0.67908261  0.25618587  0.18757788     0.00440
C899        C  0.63868089  0.27654244  0.18961466    -0.08130
C900        C  0.60848344  0.26894834  0.15722707    -0.05500
C901        C  0.61821251  0.24664698  0.12069085     0.00430
C902        C  0.66036893  0.23156103  0.11680637    -0.08040
C903        C  0.67615575  0.21278401  0.07670892     0.62340
H904        H  0.72013113  0.22122897  0.14915887     0.13040
H905        H  0.57746794  0.28302297  0.15944702     0.13050
C906        C  0.62674224  0.30908155  0.22249757     0.62580
F907        F  0.71728917  0.19830712  0.08066865    -0.22590
F908        F  0.67616891  0.24244600  0.04593324    -0.19920
F909        F  0.65027637  0.17993516  0.06487859    -0.19600
F910        F  0.61975210  0.34701044  0.20461493    -0.19650
F911        F  0.65801416  0.31451342  0.25261720    -0.19970
F912        F  0.58892655  0.29970379  0.24121799    -0.22650
C913        C  0.64565996  0.73945610  0.19015462    -0.05480
C914        C  0.68840695  0.75010085  0.18215388     0.00440
C915        C  0.69856455  0.76121781  0.14076828    -0.08130
C916        C  0.66809775  0.75439739  0.10875037    -0.05500
C917        C  0.62556518  0.74400651  0.11723911     0.00430
C918        C  0.61344325  0.74163499  0.15924309    -0.08040
C919        C  0.56754307  0.74625988  0.17300700     0.62340
H920        H  0.63688769  0.73130545  0.22118395     0.13040
H921        H  0.67714055  0.75973374  0.07688013     0.13050
C922        C  0.73948442  0.78271300  0.12862355     0.62580
F923        F  0.56595358  0.77476078  0.20473001    -0.22590
F924        F  0.55187473  0.70869109  0.18659890    -0.19920
F925        F  0.54082506  0.76151323  0.14246474    -0.19600
F926        F  0.76224602  0.75690463  0.10321705    -0.19650
F927        F  0.76433044  0.79454813  0.16236365    -0.19970
F928        F  0.72990025  0.81818262  0.10674905    -0.22650
C929        C  0.78397267  0.64308858  0.12736091    -0.05480
C930        C  0.74707338  0.61868387  0.12301847     0.00440
C931        C  0.71274183  0.62792975  0.15001899    -0.08130
C932        C  0.71807400  0.65938715  0.18101448    -0.05500
C933        C  0.75456215  0.68537869  0.18408974     0.00430
C934        C  0.78749185  0.67718789  0.15490945    -0.08040
C935        C  0.82651381  0.70374951  0.14879059     0.62340
H936        H  0.81031938  0.63670945  0.10702590     0.13040
H937        H  0.69282922  0.66470713  0.20278797     0.13050
C938        C  0.66959552  0.60685619  0.14486802     0.62580
F939        F  0.86160285  0.68296833  0.16362957    -0.22590
F940        F  0.82321398  0.74147854  0.16776343    -0.19920
F941        F  0.83230193  0.71104155  0.10695866    -0.19600
F942        F  0.67264571  0.56523646  0.15369588    -0.19650
F943        F  0.65503407  0.61170325  0.10461498    -0.19970
F944        F  0.63958488  0.62369530  0.17086104    -0.22650
C945        C  0.80424331  0.64643394  0.25854404    -0.05480
C946        C  0.82057374  0.68725800  0.25414448     0.00440
C947        C  0.86616234  0.69089218  0.25355107    -0.08130
C948        C  0.89180803  0.65619485  0.26026802    -0.05500
C949        C  0.87583342  0.61575826  0.26049240     0.00430
C950        C  0.83068387  0.61068214  0.25975611    -0.08040
C951        C  0.81024602  0.56800497  0.25905001     0.62340
H952        H  0.77003348  0.64254110  0.25955116     0.13040
H953        H  0.92604869  0.66087735  0.26158448     0.13050
C954        C  0.89147566  0.72845594  0.24160718     0.62580
F955        F  0.76628130  0.56982489  0.25692256    -0.22590
F956        F  0.82141295  0.54692817  0.29471818    -0.19920
F957        F  0.82377764  0.54629740  0.22470308    -0.19600
F958        F  0.91512236  0.74206346  0.27554964    -0.19650
F959        F  0.86583797  0.75866207  0.22681959    -0.19970
F960        F  0.91953244  0.71886325  0.21034893    -0.22650
C961        C  0.81642547  0.73863666  0.34865561    -0.05480
C962        C  0.82097294  0.76287701  0.31295968     0.00440
C963        C  0.85435877  0.79384052  0.31279926    -0.08130
C964        C  0.88366461  0.79531597  0.34671884    -0.05500
C965        C  0.87833192  0.77108811  0.38249256     0.00430
C966        C  0.84261909  0.74401687  0.38416802    -0.08040
C967        C  0.83224244  0.72064660  0.42345471     0.62340
H968        H  0.79124326  0.71561325  0.34887434     0.13040
H969        H  0.91087600  0.81617293  0.34546491     0.13050
C970        C  0.86251252  0.82464290  0.27753420     0.62580
F971        F  0.79677543  0.69519372  0.41853879    -0.22590
F972        F  0.82409964  0.74856015  0.45491889    -0.19920
F973        F  0.86621350  0.69641630  0.43482958    -0.19600
F974        F  0.86342815  0.86470553  0.29180377    -0.19650
F975        F  0.83195846  0.82228226  0.24629149    -0.19970
F976        F  0.90217555  0.81830701  0.26080587    -0.22650
C977        C  0.76662208  0.85265499  0.31641874    -0.05480
C978        C  0.74483919  0.81439802  0.31834972     0.00440
C979        C  0.72215227  0.80680661  0.35595038    -0.08130
C980        C  0.71525606  0.83999213  0.38441972    -0.05500
C981        C  0.73708960  0.87819057  0.38158139     0.00430
C982        C  0.76851314  0.88055602  0.35050093    -0.08040
C983        C  0.80996340  0.90426379  0.35729201     0.62340
H984        H  0.78557546  0.85929867  0.28975163     0.13040
H985        H  0.69522411  0.83472219  0.41099677     0.13050
C986        C  0.70955592  0.76411937  0.37093358     0.62580
F987        F  0.84247145  0.87634104  0.36165949    -0.22590
F988        F  0.81128993  0.92660098  0.39342429    -0.19920
F989        F  0.81772272  0.93029170  0.32426763    -0.19600
F990        F  0.73295514  0.75559985  0.40642803    -0.19650
F991        F  0.71708179  0.73335563  0.34233076    -0.19970
F992        F  0.66707603  0.76300169  0.38113542    -0.22650
C993        C  0.69487687  0.85094749  0.22992454    -0.05480
C994        C  0.68301456  0.81304504  0.24781695     0.00440
C995        C  0.64025861  0.80904998  0.26229789    -0.08130
C996        C  0.61057464  0.84076001  0.25361539    -0.05500
C997        C  0.62244119  0.87817320  0.23481656     0.00430
C998        C  0.66625621  0.88426537  0.22561279    -0.08040
C999        C  0.68347238  0.92647480  0.21342043     0.62340
H1000       H  0.72773003  0.85485974  0.22090128     0.13040
H1001       H  0.57812128  0.83728015  0.26413932     0.13050
C1002       C  0.62491417  0.77470507  0.29050429     0.62580
F1003       F  0.72570132  0.92492515  0.20197068    -0.22590
F1004       F  0.68098091  0.95320937  0.24689014    -0.19920
F1005       F  0.66013128  0.94196494  0.18045140    -0.19600
F1006       F  0.61585357  0.79177100  0.32864412    -0.19650
F1007       F  0.65439597  0.74396315  0.29551914    -0.19970
F1008       F  0.58792291  0.75648170  0.27538590    -0.22650
C1009       C  0.31088244  0.85361409  0.24642899    -0.05480
C1010       C  0.32489623  0.81251978  0.25157114     0.00440
C1011       C  0.37019387  0.80702220  0.25383893    -0.08130
C1012       C  0.39817660  0.84107676  0.24794897    -0.05500
C1013       C  0.38404993  0.88173264  0.24441369     0.00430
C1014       C  0.33933044  0.88823693  0.24465228    -0.08040
C1015       C  0.32157929  0.93158303  0.24262639     0.62340
H1016       H  0.27694009  0.85856725  0.24435805     0.13040
H1017       H  0.43225230  0.83603959  0.24878006     0.13050
C1018       C  0.39230504  0.76733620  0.26490514     0.62580
F1019       F  0.27755964  0.93128620  0.23995689    -0.22590
F1020       F  0.33713152  0.95174823  0.20819434    -0.19920
F1021       F  0.33345886  0.95334924  0.27802277    -0.19600
F1022       F  0.41711914  0.75512015  0.23212625    -0.19650
F1023       F  0.36438596  0.73625008  0.27472871    -0.19970
F1024       F  0.41882636  0.77389425  0.29897010    -0.22650
C1025       C  0.22664260  0.84355279  0.31707640    -0.05480
C1026       C  0.25879196  0.81356486  0.31891709     0.00440
C1027       C  0.28968206  0.81826462  0.35169092    -0.08130
C1028       C  0.28734963  0.85196586  0.37998787    -0.05500
C1029       C  0.25459032  0.88127433  0.37901983     0.00430
C1030       C  0.22350431  0.87672870  0.34622821    -0.08040
C1031       C  0.18607889  0.90567662  0.34199079     0.62340
H1032       H  0.20356922  0.84067164  0.29197777     0.13040
H1033       H  0.31167613  0.85490769  0.40403484     0.13050
C1034       C  0.32605598  0.78909168  0.35933184     0.62580
F1035       F  0.15941909  0.89496546  0.30900054    -0.22590
F1036       F  0.20041934  0.94567204  0.33549074    -0.19920
F1037       F  0.16222782  0.90395346  0.37751914    -0.19600
F1038       F  0.36376535  0.80917175  0.35013916    -0.19650
F1039       F  0.32240628  0.75344627  0.33625185    -0.19970
F1040       F  0.32740122  0.77787474  0.40067738    -0.22650
C1041       C  0.15033415  0.76845499  0.31009698    -0.05480
C1042       C  0.18963612  0.74926156  0.31830143     0.00440
C1043       C  0.19510701  0.73061112  0.35800616    -0.08130
C1044       C  0.16237763  0.73340569  0.38781122    -0.05500
C1045       C  0.12250632  0.75077412  0.37874084     0.00430
C1046       C  0.11631287  0.76821847  0.33874323    -0.08040
C1047       C  0.07394555  0.78697300  0.32644433     0.62340
H1048       H  0.14629621  0.78378778  0.28071858     0.13040
H1049       H  0.16743254  0.72000851  0.41822530     0.13050
C1050       C  0.23425617  0.70677529  0.37090544     0.62580
F1051       F  0.07563058  0.80631532  0.28830300    -0.22590
F1052       F  0.06228545  0.81606659  0.35559656    -0.19920
F1053       F  0.04308049  0.75618284  0.32393160    -0.19600
F1054       F  0.25587913  0.72864440  0.40167800    -0.19650
F1055       F  0.26145082  0.69943675  0.33858077    -0.19970
F1056       F  0.22201621  0.66878345  0.38659730    -0.22650
C1057       C  0.19234603  0.64747084  0.26845008    -0.05480
C1058       C  0.18419564  0.68642575  0.25067953     0.00440
C1059       C  0.14421284  0.69126261  0.22987915    -0.08130
C1060       C  0.11489213  0.65759632  0.22768724    -0.05500
C1061       C  0.12395182  0.61794574  0.24326162     0.00430
C1062       C  0.16413309  0.61286092  0.26365073    -0.08040
C1063       C  0.17786396  0.57108100  0.27985370     0.62340
H1064       H  0.22240882  0.64382705  0.28470913     0.13040
H1065       H  0.08447556  0.66230137  0.21223433     0.13050
C1066       C  0.12988992  0.73076785  0.20917889     0.62580
F1067       F  0.21734581  0.57306006  0.29941326    -0.22590
F1068       F  0.18066564  0.54359398  0.24709243    -0.19920
F1069       F  0.14870432  0.55638529  0.30808100    -0.19600
F1070       F  0.11961210  0.72254200  0.16812834    -0.19650
F1071       F  0.16029402  0.76183819  0.21042161    -0.19970
F1072       F  0.09381457  0.74480245  0.22854682    -0.22650
C1073       C  0.25600665  0.64434014  0.19473768    -0.05480
C1074       C  0.24693920  0.68554440  0.18473803     0.00440
C1075       C  0.23248997  0.69340837  0.14336781    -0.08130
C1076       C  0.22837282  0.66012056  0.11440673    -0.05500
C1077       C  0.23853937  0.61884782  0.12433135     0.00430
C1078       C  0.25372369  0.61133330  0.16574891    -0.08040
C1079       C  0.26914750  0.56916775  0.18013037     0.62340
H1080       H  0.26579086  0.63803673  0.22620146     0.13040
H1081       H  0.21737977  0.66683144  0.08317546     0.13050
C1082       C  0.22059142  0.73582999  0.12747217     0.62580
F1083       F  0.28313986  0.56966355  0.22106065    -0.22590
F1084       F  0.30313322  0.55700965  0.15633410    -0.19920
F1085       F  0.23644348  0.54030545  0.17694158    -0.19600
F1086       F  0.24760046  0.74673910  0.09578224    -0.19650
F1087       F  0.22289442  0.76622705  0.15757101    -0.19970
F1088       F  0.17943872  0.73449364  0.11176096    -0.22650
C1089       C  0.32153143  0.77467587  0.15683642    -0.05480
C1090       C  0.32178888  0.74384040  0.18753706     0.00440
C1091       C  0.35299618  0.71208784  0.18375350    -0.08130
C1092       C  0.38413334  0.71498949  0.15231474    -0.05500
C1093       C  0.38437628  0.74632719  0.12211361     0.00430
C1094       C  0.35011393  0.77502615  0.12297175    -0.08040
C1095       C  0.34198736  0.80487982  0.08758936     0.62340
H1096       H  0.29739326  0.79813770  0.15888824     0.13040
H1097       H  0.40837937  0.69147063  0.15089436     0.13050
C1098       C  0.35652080  0.67457729  0.21181685     0.62580
F1099       F  0.30725170  0.82972342  0.09475449    -0.22590
F1100       F  0.33344215  0.78270874  0.05153478    -0.19920
F1101       F  0.37708010  0.83033346  0.08214902    -0.19600
F1102       F  0.34962324  0.63913805  0.18843095    -0.19650
F1103       F  0.32815284  0.67475772  0.24401406    -0.19970
F1104       F  0.39710961  0.67282539  0.22885325    -0.22650
C1105       C  0.18806129  0.65266606  0.73812391    -0.05480
C1106       C  0.17732091  0.69024228  0.75699962     0.00440
C1107       C  0.13660140  0.69371331  0.77591484    -0.08130
C1108       C  0.10684315  0.66127077  0.76992767    -0.05500
C1109       C  0.11775366  0.62352330  0.75122491     0.00430
C1110       C  0.15995672  0.61840497  0.73701173    -0.08040
C1111       C  0.17596937  0.57699617  0.72170187     0.62340
H1112       H  0.21976105  0.64992422  0.72572312     0.13040
H1113       H  0.07543607  0.66429652  0.78302513     0.13050
C1114       C  0.12382410  0.72819674  0.80581816     0.62580
F1115       F  0.21681072  0.58003012  0.70638067    -0.22590
F1116       F  0.14960605  0.56179548  0.69035927    -0.19920
F1117       F  0.17693419  0.54928813  0.75425065    -0.19600
F1118       F  0.08739046  0.74698234  0.79210100    -0.19650
F1119       F  0.15561294  0.75752836  0.81204435    -0.19970
F1120       F  0.11400359  0.71215435  0.84410983    -0.22650
C1121       C  0.19396476  0.73166357  0.65087193    -0.05480
C1122       C  0.17932124  0.74964684  0.68805486     0.00440
C1123       C  0.13579012  0.76253461  0.68761572    -0.08130
C1124       C  0.10843958  0.75148809  0.65413506    -0.05500
C1125       C  0.12302581  0.73411896  0.61746066     0.00430
C1126       C  0.16748884  0.72684370  0.61471568    -0.08040
C1127       C  0.18720273  0.71582060  0.57357425     0.62340
H1128       H  0.22709685  0.72308563  0.64972535     0.13040
H1129       H  0.07536365  0.76071298  0.65487261     0.13050
C1130       C  0.11695517  0.79373770  0.71658849     0.62580
F1131       F  0.23001158  0.70696847  0.57791836    -0.22590
F1132       F  0.18357821  0.74891969  0.54676623    -0.19920
F1133       F  0.16661742  0.68169541  0.55638823    -0.19600
F1134       F  0.11248304  0.83059720  0.69567525    -0.19650
F1135       F  0.14156606  0.80057936  0.75133480    -0.19970
F1136       F  0.07664410  0.78100947  0.72787808    -0.22650
C1137       C  0.30457724  0.75609205  0.85945950    -0.05480
C1138       C  0.31589393  0.75098210  0.81773410     0.00440
C1139       C  0.36025212  0.74774338  0.80881136    -0.08130
C1140       C  0.39045914  0.75049574  0.84165431    -0.05500
C1141       C  0.37912969  0.75535394  0.88344815     0.00430
C1142       C  0.33490774  0.75862789  0.89235541    -0.08040
C1143       C  0.31900244  0.76544420  0.93609538     0.62340
H1144       H  0.27103987  0.75848619  0.86611208     0.13040
H1145       H  0.42384368  0.74757513  0.83429610     0.13050
C1146       C  0.37874423  0.73935434  0.76628201     0.62580
F1147       F  0.27558041  0.77215214  0.93675195    -0.22590
F1148       F  0.33893256  0.79982384  0.95352297    -0.19920
F1149       F  0.32716532  0.73098109  0.96000090    -0.19600
F1150       F  0.40651037  0.77106721  0.75627448    -0.19650
F1151       F  0.34838286  0.73533412  0.73523576    -0.19970
F1152       F  0.40185618  0.70325115  0.76731892    -0.22650
C1153       C  0.21196355  0.67650468  0.84484983    -0.05480
C1154       C  0.24754564  0.68324823  0.81918184     0.00440
C1155       C  0.28083439  0.65348950  0.82448862    -0.08130
C1156       C  0.27963225  0.62458161  0.85799020    -0.05500
C1157       C  0.24311322  0.61825065  0.88224327     0.00430
C1158       C  0.20731651  0.64183285  0.87149813    -0.08040
C1159       C  0.16344061  0.62665566  0.88358397     0.62340
H1160       H  0.18684523  0.69806068  0.84369430     0.13040
H1161       H  0.30661271  0.60458205  0.86319234     0.13050
C1162       C  0.31656341  0.64758297  0.79444642     0.62580
F1163       F  0.13259493  0.64059801  0.85666509    -0.22590
F1164       F  0.15451148  0.63971126  0.92330517    -0.19920
F1165       F  0.16120317  0.58390479  0.88138762    -0.19600
F1166       F  0.35473918  0.65736712  0.81407901    -0.19650
F1167       F  0.31150505  0.67081533  0.75912543    -0.19970
F1168       F  0.31765561  0.60654783  0.78218889    -0.22650
C1169       C  0.26888699  0.80737832  0.65354551    -0.05480
C1170       C  0.24596573  0.81715385  0.68960917     0.00440
C1171       C  0.22884818  0.85774647  0.69205694    -0.08130
C1172       C  0.23339832  0.88531186  0.65843161    -0.05500
C1173       C  0.25647531  0.87588470  0.62262919     0.00430
C1174       C  0.27594532  0.83626359  0.62094110    -0.08040
C1175       C  0.30657409  0.82523096  0.58674772     0.62340
H1176       H  0.28308492  0.77708972  0.65201906     0.13040
H1177       H  0.21899934  0.91553343  0.66077948     0.13050
C1178       C  0.20656275  0.87523952  0.72934708     0.62580
F1179       F  0.32577898  0.78752612  0.59370187    -0.22590
F1180       F  0.33848015  0.85486515  0.58492052    -0.19920
F1181       F  0.28535343  0.82299039  0.54898957    -0.19600
F1182       F  0.22884371  0.90969956  0.74357306    -0.19650
F1183       F  0.20346735  0.84768279  0.76142723    -0.19970
F1184       F  0.16608235  0.88737172  0.71786668    -0.22650
C1185       C  0.33982683  0.82345393  0.72755192    -0.05480
C1186       C  0.30927274  0.82065524  0.75882425     0.00440
C1187       C  0.31152619  0.85074074  0.79130733    -0.08130
C1188       C  0.34513643  0.88044157  0.79206498    -0.05500
C1189       C  0.37742041  0.88138715  0.76220559     0.00430
C1190       C  0.37435926  0.85197512  0.72893960    -0.08040
C1191       C  0.40742906  0.84936256  0.69493050     0.62340
H1192       H  0.33770587  0.80125243  0.70253141     0.13040
H1193       H  0.34632970  0.90306126  0.81699009     0.13050
C1194       C  0.27917423  0.85437118  0.82556661     0.62580
F1195       F  0.39698668  0.81964791  0.66530641    -0.22590
F1196       F  0.44647563  0.83881361  0.71192895    -0.19920
F1197       F  0.41077333  0.88689368  0.67485458    -0.19600
F1198       F  0.29974274  0.85165215  0.86361633    -0.19650
F1199       F  0.24767318  0.82433830  0.82385246    -0.19970
F1200       F  0.25999199  0.89256225  0.82298041    -0.22650
C1201       C  0.20947072  0.35975217  0.87250093    -0.05480
C1202       C  0.24765661  0.38148189  0.88064548     0.00440
C1203       C  0.28385437  0.36846089  0.85935970    -0.08130
C1204       C  0.27872227  0.34097294  0.82497881    -0.05500
C1205       C  0.24145551  0.31656551  0.81750578     0.00430
C1206       C  0.20707479  0.32517776  0.84497807    -0.08040
C1207       C  0.16858760  0.29762589  0.84995554     0.62340
H1208       H  0.18190030  0.36754621  0.89055833     0.13040
H1209       H  0.30453430  0.33815717  0.80438514     0.13050
C1210       C  0.32767949  0.37942178  0.87701335     0.62580
F1211       F  0.16085996  0.29166502  0.89166769    -0.22590
F1212       F  0.17428285  0.25912382  0.83264150    -0.19920
F1213       F  0.13371209  0.31680452  0.83258571    -0.19600
F1214       F  0.32907142  0.37012868  0.91894269    -0.19650
F1215       F  0.33655903  0.42097119  0.87186916    -0.19970
F1216       F  0.35923894  0.35710899  0.85860907    -0.22650
C1217       C  0.30306376  0.23559789  0.85275339    -0.05480
C1218       C  0.31174752  0.25498655  0.81495931     0.00440
C1219       C  0.35256780  0.27458713  0.81050863    -0.08130
C1220       C  0.38242929  0.27294645  0.84363399    -0.05500
C1221       C  0.37336978  0.25455205  0.88207548     0.00430
C1222       C  0.33262551  0.23486072  0.88631653    -0.08040
C1223       C  0.31958786  0.21266448  0.92566787     0.62340
H1224       H  0.27219148  0.22075052  0.85565967     0.13040
H1225       H  0.41322540  0.28768851  0.83952218     0.13050
C1226       C  0.36624477  0.30013307  0.77331991     0.62580
F1227       F  0.27857444  0.19668912  0.92283500    -0.22590
F1228       F  0.32104171  0.23999867  0.95878626    -0.19920
F1229       F  0.34651360  0.17990976  0.93313214    -0.19600
F1230       F  0.37766442  0.33978195  0.78564141    -0.19650
F1231       F  0.33454935  0.30353539  0.74359362    -0.19970
F1232       F  0.40184631  0.28306865  0.75621258    -0.22650
C1233       C  0.37956040  0.15234749  0.73387246    -0.05480
C1234       C  0.37386350  0.11810235  0.76006047     0.00440
C1235       C  0.33550224  0.11707364  0.78329482    -0.08130
C1236       C  0.30813067  0.15208151  0.78306972    -0.05500
C1237       C  0.31269952  0.18558316  0.75541321     0.00430
C1238       C  0.34945004  0.18458439  0.72956180    -0.08040
C1239       C  0.35918082  0.21501391  0.69550787     0.62340
H1240       H  0.40761483  0.15328909  0.71471040     0.13040
H1241       H  0.28174154  0.15279249  0.80410082     0.13050
C1242       C  0.32182878  0.07859528  0.80664726     0.62580
F1243       F  0.35919519  0.19412191  0.65817050    -0.22590
F1244       F  0.39951273  0.23154270  0.70149927    -0.19920
F1245       F  0.33037649  0.24659530  0.69292945    -0.19600
F1246       F  0.35061640  0.07040370  0.83807652    -0.19650
F1247       F  0.31936271  0.04527635  0.77950986    -0.19970
F1248       F  0.28219492  0.08287515  0.82424924    -0.22650
C1249       C  0.26216407  0.18990527  0.65366000    -0.05480
C1250       C  0.24408669  0.17836036  0.69186918     0.00440
C1251       C  0.23232575  0.13575760  0.69637808    -0.08130
C1252       C  0.23539359  0.10848559  0.66217500    -0.05500
C1253       C  0.25359975  0.12002396  0.62439237     0.00430
C1254       C  0.26962914  0.16117440  0.62107788    -0.08040
C1255       C  0.29818406  0.17368347  0.58548228     0.62340
H1256       H  0.27181508  0.22181388  0.64983947     0.13040
H1257       H  0.22468316  0.07671427  0.66580860     0.13050
C1258       C  0.21933596  0.11532819  0.73640490     0.62580
F1259       F  0.31525288  0.21302393  0.59097005    -0.22590
F1260       F  0.27567014  0.17335705  0.54843173    -0.19920
F1261       F  0.33164702  0.14629868  0.58308514    -0.19600
F1262       F  0.18073619  0.09513101  0.73120285    -0.19650
F1263       F  0.21671942  0.14252781  0.76910935    -0.19970
F1264       F  0.24890261  0.08571402  0.74631739    -0.22650
C1265       C  0.18084468  0.24966019  0.65298114    -0.05480
C1266       C  0.17108261  0.23275544  0.69171880     0.00440
C1267       C  0.13501310  0.20456778  0.69258054    -0.08130
C1268       C  0.10773012  0.20074146  0.65727164    -0.05500
C1269       C  0.11782703  0.21770062  0.61876044     0.00430
C1270       C  0.15778115  0.23941629  0.61618233    -0.08040
C1271       C  0.17858157  0.24932750  0.57507300     0.62340
H1272       H  0.20921496  0.26888573  0.65119620     0.13040
H1273       H  0.07872670  0.18243599  0.65952677     0.13050
C1274       C  0.12222937  0.17688183  0.72829017     0.62580
F1275       F  0.22074668  0.26147532  0.58022192    -0.22590
F1276       F  0.15750791  0.28103770  0.55560021    -0.19920
F1277       F  0.17796268  0.21452514  0.54991662    -0.19600
F1278       F  0.15048230  0.17890113  0.76117912    -0.19650
F1279       F  0.11925246  0.13664301  0.71417864    -0.19970
F1280       F  0.08222923  0.18703923  0.74221337    -0.22650
C1281       C  0.19236788  0.35524022  0.74270781    -0.05480
C1282       C  0.17487215  0.31454804  0.74536242     0.00440
C1283       C  0.12900449  0.31274033  0.74174572    -0.08130
C1284       C  0.10510756  0.34803772  0.73101239    -0.05500
C1285       C  0.12194495  0.38796651  0.73298865     0.00430
C1286       C  0.16687489  0.39173841  0.73950843    -0.08040
C1287       C  0.18806579  0.43403054  0.74271541     0.62340
H1288       H  0.22660514  0.35858127  0.74488497     0.13040
H1289       H  0.07086344  0.34479705  0.72693119     0.13050
C1290       C  0.10103960  0.27762212  0.75510119     0.62580
F1291       F  0.23199380  0.43138090  0.74440632    -0.22590
F1292       F  0.17519049  0.45382931  0.77840056    -0.19920
F1293       F  0.17698867  0.45754956  0.70860379    -0.19600
F1294       F  0.07158436  0.29140401  0.78343416    -0.19650
F1295       F  0.12411240  0.24772340  0.77431805    -0.19970
F1296       F  0.07872358  0.26245023  0.72099772    -0.22650
C1297       C  0.71522711  0.18749068  0.65237637    -0.05480
C1298       C  0.74754452  0.18782091  0.68293966     0.00440
C1299       C  0.77642108  0.15420985  0.68296719    -0.08130
C1300       C  0.77348265  0.12371876  0.65107914    -0.05500
C1301       C  0.74271079  0.12470053  0.61870932     0.00430
C1302       C  0.71287885  0.15791673  0.61963712    -0.08040
C1303       C  0.67879102  0.16359304  0.58621816     0.62340
H1304       H  0.69219255  0.21200095  0.65364185     0.13040
H1305       H  0.79600164  0.09859423  0.65161218     0.13050
C1306       C  0.80998253  0.14757433  0.71648452     0.62580
F1307       F  0.65303251  0.19706578  0.59427456    -0.22590
F1308       F  0.65281435  0.12904548  0.58370383    -0.19920
F1309       F  0.69764276  0.17044398  0.54836628    -0.19600
F1310       F  0.80366041  0.10908730  0.73405852    -0.19650
F1311       F  0.80911826  0.17663777  0.74796051    -0.19970
F1312       F  0.84982082  0.14868289  0.69886680    -0.22650
C1313       C  0.69640164  0.15023524  0.75964073    -0.05480
C1314       C  0.68312144  0.18963537  0.74689733     0.00440
C1315       C  0.63989480  0.19420009  0.73441666    -0.08130
C1316       C  0.61143977  0.16017451  0.73772112    -0.05500
C1317       C  0.62446551  0.12052007  0.75049306     0.00430
C1318       C  0.66847769  0.11545960  0.76081751    -0.08040
C1319       C  0.68664017  0.07380938  0.77290925     0.62340
H1320       H  0.72947805  0.14697360  0.76862368     0.13040
H1321       H  0.57839420  0.16470559  0.72901599     0.13050
C1322       C  0.62180837  0.23354708  0.71629367     0.62580
F1323       F  0.72977459  0.07627996  0.78198721    -0.22590
F1324       F  0.68111530  0.04612695  0.74036674    -0.19920
F1325       F  0.66652243  0.05897172  0.80777847    -0.19600
F1326       F  0.60211435  0.22456786  0.67862034    -0.19650
F1327       F  0.65227407  0.26364768  0.70932336    -0.19970
F1328       F  0.59187073  0.24916201  0.74297689    -0.22650
C1329       C  0.85434020  0.31411744  0.76466682    -0.05480
C1330       C  0.81563635  0.32068375  0.74324501     0.00440
C1331       C  0.81169757  0.35776327  0.71971986    -0.08130
C1332       C  0.84511870  0.38746960  0.72085702    -0.05500
C1333       C  0.88349234  0.38091292  0.74239368     0.00430
C1334       C  0.88907644  0.34250226  0.76268823    -0.08040
C1335       C  0.93190227  0.33114328  0.78108519     0.62340
H1336       H  0.85767858  0.28563329  0.78185630     0.13040
H1337       H  0.84174201  0.41601365  0.70367847     0.13050
C1338       C  0.77439069  0.36637146  0.69082484     0.62580
F1339       F  0.93108618  0.29233395  0.79899065    -0.22590
F1340       F  0.94386573  0.35961023  0.81115063    -0.19920
F1341       F  0.96196770  0.33094920  0.75016964    -0.19600
F1342       F  0.73783369  0.34521475  0.70155698    -0.19650
F1343       F  0.78547555  0.35498314  0.65131312    -0.19970
F1344       F  0.76524341  0.40814715  0.69056363    -0.22650
C1345       C  0.85619261  0.24527396  0.69183445    -0.05480
C1346       C  0.81429472  0.25490694  0.67925858     0.00440
C1347       C  0.80732030  0.26267195  0.63596991    -0.08130
C1348       C  0.84212491  0.26156331  0.60833387    -0.05500
C1349       C  0.88397995  0.25265572  0.62122182     0.00430
C1350       C  0.89087536  0.24389321  0.66401581    -0.08040
C1351       C  0.93480037  0.23341123  0.68071152     0.62340
H1352       H  0.86151738  0.23782949  0.72412296     0.13040
H1353       H  0.83623383  0.26709289  0.57561667     0.13050
C1354       C  0.76429437  0.27143893  0.61615026     0.62580
F1355       F  0.93581696  0.23161179  0.72360521    -0.22590
F1356       F  0.96392041  0.26326097  0.66867134    -0.19920
F1357       F  0.94681651  0.19526486  0.66565559    -0.19600
F1358       F  0.76712034  0.30595240  0.59112804    -0.19650
F1359       F  0.73298030  0.27837700  0.64482207    -0.19970
F1360       F  0.75242017  0.23837863  0.59109653    -0.22650
C1361       C  0.67737864  0.22319760  0.83684519    -0.05480
C1362       C  0.68130271  0.25739189  0.81009602     0.00440
C1363       C  0.65180621  0.29038034  0.81578653    -0.08130
C1364       C  0.62149124  0.28816920  0.84806860    -0.05500
C1365       C  0.61829842  0.25425621  0.87488874     0.00430
C1366       C  0.64680349  0.22109995  0.86881421    -0.08040
C1367       C  0.64456418  0.18328836  0.89598362     0.62340
H1368       H  0.69951758  0.19813921  0.83317981     0.13040
H1369       H  0.59968130  0.31353852  0.85228794     0.13050
C1370       C  0.64920072  0.32846917  0.78873087     0.62580
F1371       F  0.67358907  0.15355548  0.88462958    -0.22590
F1372       F  0.60419285  0.16599283  0.89272952    -0.19920
F1373       F  0.65322408  0.19467678  0.93664672    -0.19600
F1374       F  0.60822720  0.33195478  0.77301847    -0.19650
F1375       F  0.67633634  0.32763382  0.75566036    -0.19970
F1376       F  0.65854301  0.36313363  0.81259931    -0.22650
C1377       C  0.75582467  0.33999440  0.88777588    -0.05480
C1378       C  0.75391528  0.38239094  0.87773491     0.00440
C1379       C  0.75677245  0.39260744  0.83486098    -0.08130
C1380       C  0.75357016  0.36083726  0.80454121    -0.05500
C1381       C  0.75461092  0.31840797  0.81410171     0.00430
C1382       C  0.75891955  0.30830020  0.85713341    -0.08040
C1383       C  0.76966921  0.26556480  0.87306971     0.62340
H1384       H  0.75678879  0.33137024  0.92021194     0.13040
H1385       H  0.74983321  0.36955895  0.77262978     0.13050
C1386       C  0.76596217  0.43646135  0.82038028     0.62580
F1387       F  0.80708313  0.26801443  0.89611932    -0.22590
F1388       F  0.77551328  0.23696734  0.84180346    -0.19920
F1389       F  0.73770118  0.25163879  0.89869147    -0.19600
F1390       F  0.80004070  0.45301563  0.84283067    -0.19650
F1391       F  0.73053728  0.46078838  0.82534152    -0.19970
F1392       F  0.77685843  0.43752600  0.77895445    -0.22650
C1393       C  0.64734415  0.81105784  0.73798870    -0.05480
C1394       C  0.68720042  0.81820954  0.75711095     0.00440
C1395       C  0.69243329  0.85525539  0.78117158    -0.08130
C1396       C  0.65906690  0.88428219  0.78246193    -0.05500
C1397       C  0.61937559  0.87769756  0.76250480     0.00430
C1398       C  0.61277257  0.83866610  0.74202470    -0.08040
C1399       C  0.56927157  0.82464338  0.72588075     0.62340
H1400       H  0.64318181  0.78267563  0.72038103     0.13040
H1401       H  0.66456104  0.91298951  0.79929525     0.13050
C1402       C  0.73304043  0.86753086  0.80444292     0.62580
F1403       F  0.56913008  0.78372058  0.71302405    -0.22590
F1404       F  0.55705468  0.84847795  0.69241347    -0.19920
F1405       F  0.53978413  0.82793734  0.75716020    -0.19600
F1406       F  0.74752693  0.90545288  0.79031854    -0.19650
F1407       F  0.76531862  0.83951394  0.79965653    -0.19970
F1408       F  0.72445585  0.87148068  0.84612723    -0.22650
C1409       C  0.74841052  0.83885063  0.61000074    -0.05480
C1410       C  0.74362108  0.88086097  0.62078064     0.00440
C1411       C  0.73512851  0.88936858  0.66291614    -0.08130
C1412       C  0.74361532  0.85866324  0.69293194    -0.05500
C1413       C  0.74710916  0.81622105  0.68322045     0.00430
C1414       C  0.74569260  0.80645972  0.63974115    -0.08040
C1415       C  0.73702719  0.76370415  0.62201483     0.62340
H1416       H  0.75095157  0.83082061  0.57745466     0.13040
H1417       H  0.74526824  0.86824514  0.72455972     0.13050
C1418       C  0.70961292  0.92630591  0.67729509     0.62580
F1419       F  0.70121979  0.76507987  0.59662743    -0.22590
F1420       F  0.72942248  0.73442415  0.65209001    -0.19920
F1421       F  0.77091388  0.75174542  0.59806510    -0.19600
F1422       F  0.67161917  0.91168251  0.69294686    -0.19650
F1423       F  0.69913520  0.95363463  0.64615323    -0.19970
F1424       F  0.73156258  0.94751904  0.70826724    -0.22650
C1425       C  0.82124525  0.71717064  0.66211378    -0.05480
C1426       C  0.81882191  0.75318754  0.68671384     0.00440
C1427       C  0.84905579  0.78555542  0.67893336    -0.08130
C1428       C  0.87912744  0.78056812  0.64684905    -0.05500
C1429       C  0.88140891  0.74435982  0.62269063     0.00430
C1430       C  0.85119999  0.71243849  0.63015531    -0.08040
C1431       C  0.85005768  0.67339494  0.60431496     0.62340
H1432       H  0.79838930  0.69259024  0.66758177     0.13040
H1433       H  0.90163535  0.80542642  0.64081804     0.13050
C1434       C  0.85249774  0.82571594  0.70335943     0.62580
F1435       F  0.81334049  0.65027830  0.61056312    -0.22590
F1436       F  0.88460436  0.64963237  0.61531827    -0.19920
F1437       F  0.85137271  0.68316831  0.56262883    -0.19600
F1438       F  0.89363504  0.83068093  0.71855810    -0.19650
F1439       F  0.82557041  0.82743107  0.73661984    -0.19970
F1440       F  0.84350509  0.85836638  0.67724001    -0.22650
C1441       C  0.80503676  0.64786400  0.74294016    -0.05480
C1442       C  0.81844432  0.68865374  0.75209395     0.00440
C1443       C  0.86161975  0.69518999  0.76437089    -0.08130
C1444       C  0.88988717  0.66152389  0.76420190    -0.05500
C1445       C  0.87651323  0.62049694  0.75577819     0.00430
C1446       C  0.83257643  0.61356807  0.74600371    -0.08040
C1447       C  0.81397068  0.57035100  0.73999665     0.62340
H1448       H  0.77200718  0.64302043  0.73411712     0.13040
H1449       H  0.92298685  0.66750837  0.77229224     0.13050
C1450       C  0.87976417  0.73624482  0.77962406     0.62580
F1451       F  0.77012497  0.57070063  0.73553262    -0.22590
F1452       F  0.82354477  0.54637356  0.77424704    -0.19920
F1453       F  0.83033885  0.55246874  0.70471255    -0.19600
F1454       F  0.90008515  0.73060244  0.81748930    -0.19650
F1455       F  0.84924729  0.76594665  0.78518933    -0.19970
F1456       F  0.90921716  0.75060389  0.75153729    -0.22650
C1457       C  0.78644615  0.68508995  0.84440633    -0.05480
C1458       C  0.75308687  0.68593613  0.81465211     0.00440
C1459       C  0.72233240  0.65309024  0.81569523    -0.08130
C1460       C  0.72362883  0.62409255  0.84860007    -0.05500
C1461       C  0.75580652  0.62464970  0.87940844     0.00430
C1462       C  0.78887831  0.65464475  0.87595517    -0.08040
C1463       C  0.82797271  0.65281601  0.90390644     0.62340
H1464       H  0.81110492  0.70859886  0.84255216     0.13040
H1465       H  0.69948644  0.59989257  0.84965827     0.13050
C1466       C  0.68895074  0.64511985  0.78202927     0.62580
F1467       F  0.85823833  0.68225097  0.89341295    -0.22590
F1468       F  0.84622320  0.61427819  0.90027871    -0.19920
F1469       F  0.81681886  0.65945957  0.94466277    -0.19600
F1470       F  0.69431624  0.60583482  0.76597573    -0.19650
F1471       F  0.69121357  0.67266743  0.74952135    -0.19970
F1472       F  0.64886922  0.64697148  0.79897338    -0.22650
C1473       C  0.64703936  0.73734872  0.80586433    -0.05480
C1474       C  0.68843192  0.75033499  0.81749472     0.00440
C1475       C  0.69718789  0.75723242  0.86039185    -0.08130
C1476       C  0.66463816  0.75055206  0.88934156    -0.05500
C1477       C  0.62305123  0.73751010  0.87798691     0.00430
C1478       C  0.61420802  0.73074361  0.83493284    -0.08040
C1479       C  0.57069272  0.71646034  0.81906260     0.62340
H1480       H  0.64083010  0.73134234  0.77332817     0.13040
H1481       H  0.67217618  0.75632275  0.92177373     0.13050
C1482       C  0.73960802  0.77225189  0.87828356     0.62580
F1483       F  0.57007847  0.70978637  0.77660758    -0.22590
F1484       F  0.54076289  0.74621756  0.82757266    -0.19920
F1485       F  0.55946891  0.67958952  0.83779240    -0.19600
F1486       F  0.73390801  0.80952336  0.89847363    -0.19650
F1487       F  0.77053730  0.77785128  0.84893144    -0.19970
F1488       F  0.75425507  0.74396065  0.90700157    -0.22650
loop_ 
_geom_bond_atom_site_label_1 
_geom_bond_atom_site_label_2 
_geom_bond_distance 
_geom_bond_site_symmetry_2 
_ccdc_geom_bond_type 
C1            C2   1.431       .  A
C1            C6   1.430       .  A
C1         C1458   1.534       .  S
C2            C3   1.445       .  A
C2         C1474   1.517       .  S
C3            C4   1.459       .  A
C3         C1394   1.527       .  S
C4            C5   1.456       .  A
C4         C1413   1.554       .  S
C5            C6   1.450       .  A
C5         C1426   1.529       .  S
C6         C1442   1.520       .  S
C7            C8   1.455       .  A
C7           C12   1.448       .  A
C7         C1330   1.521       .  S
C8            C9   1.448       .  A
C8         C1381   1.542       .  S
C9           C10   1.448       .  A
C9         C1362   1.539       .  S
C10          C11   1.441       .  A
C10        C1314   1.519       .  S
C11          C12   1.441       .  A
C11        C1298   1.530       .  S
C12        C1346   1.538       .  S
C13          C14   1.476       .  A
C13          C18   1.467       .  A
C13        C1205   1.573       .  S
C14          C15   1.481       .  A
C14        C1282   1.578       .  S
C15          C16   1.459       .  A
C15        C1266   1.537       .  S
C16          C17   1.441       .  A
C16        C1250   1.537       .  S
C17          C18   1.447       .  A
C17        C1237   1.555       .  S
C18        C1218   1.521       .  S
C19          C20   1.453       .  A
C19          C24   1.451       .  A
C19        C1138   1.523       .  S
C20          C21   1.446       .  A
C20        C1186   1.527       .  S
C21          C22   1.442       .  A
C21        C1170   1.535       .  S
C22          C23   1.452       .  A
C22        C1122   1.546       .  S
C23          C24   1.454       .  A
C23        C1106   1.500       .  S
C24        C1154   1.576       .  S
C25          C26   1.459       .  A
C25          C30   1.461       .  A
C25        C1010   1.547       .  S
C26          C27   1.451       .  A
C26        C1090   1.535       .  S
C27          C28   1.442       .  A
C27        C1074   1.535       .  S
C28          C29   1.445       .  A
C28        C1058   1.534       .  S
C29          C30   1.454       .  A
C29        C1042   1.532       .  S
C30        C1026   1.545       .  S
C31          C32   1.445       .  A
C31          C36   1.453       .  A
C31         C914   1.522       .  S
C32          C33   1.437       .  A
C32         C994   1.528       .  S
C33          C34   1.450       .  A
C33         C978   1.548       .  S
C34          C35   1.467       .  A
C34         C962   1.515       .  S
C35          C36   1.458       .  A
C35         C946   1.555       .  S
C36         C933   1.555       .  S
C37          C38   1.461       .  A
C37          C42   1.458       .  A
C37         C850   1.551       .  S
C38          C39   1.457       .  A
C38         C898   1.518       .  S
C39          C40   1.452       .  A
C39         C885   1.578       .  S
C40          C41   1.468       .  A
C40         C834   1.531       .  S
C41          C42   1.467       .  A
C41         C821   1.546       .  S
C42         C866   1.567       .  S
Zn43         O47   1.988   1_545  S
Zn43         O48   2.098   1_545  S
Zn43         O52   1.923       .  S
Zn43         O59   2.061       .  S
Zn44         O47   1.905       .  S
Zn44         O49   2.013       .  S
Zn44         O51   2.045       .  S
Zn44         O55   1.830       .  S
Zn45         O47   1.932   1_545  S
Zn45         O50   1.878       .  S
Zn45         O53   2.098   1_545  S
Zn45         O56   2.091       .  S
Zn46         O47   1.966   1_545  S
Zn46         O54   2.086       .  S
Zn46         O57   1.867       .  S
Zn46         O58   2.058       .  S
O48          C60   1.280       .  A
O49          C61   1.265       .  A
O50          C62   1.266       .  A
O51          C60   1.270       .  A
O52          C62   1.276       .  A
O53          C61   1.278       .  A
O54          C63   1.275       .  A
O55          C64   1.263   1_565  A
O56          C63   1.273       .  A
O57          C64   1.273       .  A
O58          C65   1.273       .  A
O59          C65   1.272       .  A
C60        C1397   1.528       .  S
C61        C1189   1.521       .  S
C62         C786   1.433       .  S
C63        C1234   1.538       .  S
C64         C802   1.384       .  S
C65        C1317   1.523       .  S
Zn66         O70   1.939       .  S
Zn66         O71   2.099       .  S
Zn66         O75   1.928       .  S
Zn66         O82   2.073       .  S
Zn67         O70   2.005       .  S
Zn67         O72   2.090   1_556  S
Zn67         O74   2.083       .  S
Zn67         O78   1.884       .  S
Zn68         O70   1.895   1_554  S
Zn68         O73   1.847       .  S
Zn68         O76   2.034       .  S
Zn68         O79   2.056       .  S
Zn69         O70   1.850       .  S
Zn69         O77   2.114   1_556  S
Zn69         O80   1.882       .  S
Zn69         O81   2.039       .  S
O71          C83   1.275       .  A
O72          C84   1.275       .  A
O73          C85   1.262       .  A
O74          C83   1.272       .  A
O75          C85   1.290   1_556  A
O76          C84   1.271       .  A
O77          C86   1.282       .  A
O78          C87   1.269       .  A
O79          C86   1.274       .  A
O80          C87   1.283       .  A
O81          C88   1.273       .  A
O82          C88   1.281       .  A
C83        C1365   1.520       .  S
C84         C901   1.518       .  S
C85         C770   1.434       .  S
C86         C738   1.533       .  S
C87         C754   1.420       .  S
C88        C1221   1.521       .  S
Zn89         O93   1.902       .  S
Zn89         O94   2.121       .  S
Zn89         O98   2.159       .  S
Zn89        O105   2.120       .  S
Zn90         O93   1.906       .  S
Zn90         O95   1.919   1_565  S
Zn90         O97   2.060       .  S
Zn90        O101   2.130   1_565  S
Zn91         O93   1.948       .  S
Zn91         O96   1.982       .  S
Zn91         O99   1.804   1_565  S
Zn91        O102   2.015   1_565  S
Zn92         O93   1.954   1_545  S
Zn92        O100   2.141       .  S
Zn92        O103   2.196       .  S
Zn92        O104   2.219       .  S
O94         C106   1.287       .  A
O95         C107   1.288       .  A
O96         C108   1.263       .  A
O97         C106   1.278       .  A
O98         C108   1.287       .  A
O99         C107   1.259       .  A
O100        C109   1.282       .  A
O101        C110   1.276       .  A
O102        C109   1.263       .  A
O103        C110   1.274       .  A
O104        C111   1.232       .  A
O105        C111   1.312   1_565  A
C106       C1013   1.516       .  S
C107        C722   1.371       .  S
C108        C997   1.512       .  S
C109        C853   1.525       .  S
C110        C690   1.540       .  S
C111        C709   1.479       .  S
C112        C113   1.345   1_565  D
C112        C677   1.418       .  S
C112        C789   1.510   1_554  S
C113        C706   1.480       .  S
C113        C757   1.433       .  S
Zn114       O118   1.901   1_556  S
Zn114       O119   2.013       .  S
Zn114       O123   2.010   1_556  S
Zn114       O130   1.852       .  S
Zn115       O118   1.950   1_556  S
Zn115       O120   1.892       .  S
Zn115       O122   2.076       .  S
Zn115       O126   2.055       .  S
Zn116       O118   1.899       .  S
Zn116       O121   2.060       .  S
Zn116       O124   1.869       .  S
Zn116       O127   2.108       .  S
Zn117       O118   1.936       .  S
Zn117       O125   2.055       .  S
Zn117       O128   2.055   1_554  S
Zn117       O129   1.864   1_554  S
O119        C131   1.270       .  A
O120        C132   1.278       .  A
O121        C133   1.280       .  A
O122        C131   1.274       .  A
O123        C133   1.271       .  A
O124        C132   1.277   1_554  A
O125        C134   1.268       .  A
O126        C135   1.270       .  A
O127        C134   1.278       .  A
O128        C135   1.266       .  A
O129        C136   1.276       .  A
O130        C136   1.268       .  A
C131       C1477   1.519       .  S
C132        C658   1.408       .  S
C133        C917   1.494       .  S
C134       C1093   1.531       .  S
C135       C1141   1.518       .  S
C136        C674   1.383       .  S
Zn137       O141   2.028       .  S
Zn137       O142   2.056       .  S
Zn137       O146   2.055       .  S
Zn137       O153   1.901       .  S
Zn138       O141   1.938       .  S
Zn138       O143   1.861       .  S
Zn138       O145   2.092       .  S
Zn138       O149   2.086   1_556  S
Zn139       O141   1.973       .  S
Zn139       O144   2.096       .  S
Zn139       O147   1.919       .  S
Zn139       O150   2.090   1_556  S
Zn140       O141   1.893   1_554  S
Zn140       O148   2.092       .  S
Zn140       O151   2.162       .  S
Zn140       O152   1.933       .  S
O142        C154   1.272       .  A
O143        C155   1.261       .  A
O144        C156   1.278       .  A
O145        C154   1.277       .  A
O146        C156   1.272       .  A
O147        C155   1.279       .  A
O148        C157   1.276       .  A
O149        C158   1.276       .  A
O150        C157   1.281       .  A
O151        C158   1.292       .  A
O152        C159   1.274   1_554  A
O153        C159   1.266       .  A
C154       C1378   1.528       .  S
C155        C626   1.427       .  S
C156       C1461   1.514       .  S
C157        C930   1.529       .  S
C158        C882   1.548       .  S
C159        C642   1.398       .  S
Zn160       O164   1.969       .  S
Zn160       O165   2.000       .  S
Zn160       O169   2.143   1_554  S
Zn160       O176   2.132       .  S
Zn161       O164   1.954       .  S
Zn161       O166   2.026   1_554  S
Zn161       O168   1.776       .  S
Zn161       O172   2.044       .  S
Zn162       O164   1.930   1_556  S
Zn162       O167   2.040       .  S
Zn162       O170   2.108       .  S
Zn162       O173   1.840       .  S
Zn163       O164   1.990       .  S
Zn163       O171   1.914       .  S
Zn163       O174   2.132       .  S
Zn163       O175   2.013       .  S
O165        C177   1.286       .  A
O166        C178   1.264       .  A
O167        C179   1.267       .  A
O168        C177   1.251       .  A
O169        C179   1.286       .  A
O170        C178   1.277       .  A
O171        C180   1.276       .  A
O172        C181   1.268       .  A
O173        C180   1.265   1_556  A
O174        C181   1.281       .  A
O175        C182   1.266       .  A
O176        C182   1.281       .  A
C177        C597   1.390       .  S
C178       C1202   1.513       .  S
C179       C1157   1.530       .  S
C180        C613   1.413       .  S
C181        C581   1.535       .  S
C182       C1077   1.532       .  S
Zn183       O187   2.004       .  S
Zn183       O188   2.051       .  S
Zn183       O192   1.854       .  S
Zn183       O199   2.053   1_455  S
Zn184       O187   1.910       .  S
Zn184       O189   2.146       .  S
Zn184       O191   2.112       .  S
Zn184       O195   2.010       .  S
Zn185       O187   1.873       .  S
Zn185       O190   1.953       .  S
Zn185       O193   2.112       .  S
Zn185       O196   2.117   1_455  S
Zn186       O187   1.948   1_655  S
Zn186       O194   2.018       .  S
Zn186       O197   1.909       .  S
Zn186       O198   2.071       .  S
O188        C200   1.270       .  A
O189        C201   1.288       .  A
O190        C202   1.286       .  A
O191        C200   1.276       .  A
O192        C202   1.262       .  A
O193        C201   1.283       .  A
O194        C203   1.273       .  A
O195        C204   1.294   1_455  A
O196        C203   1.285       .  A
O197        C204   1.276       .  A
O198        C205   1.270       .  A
O199        C205   1.274       .  A
C200       C1061   1.529       .  S
C201        C533   1.536       .  S
C202        C565   1.389       .  S
C203        C837   1.502       .  S
C204        C546   1.447       .  S
C205        C949   1.522       .  S
C206        C207   1.366   1_554  D
C206        C549   1.452   1_455  S
C206        C594   1.506       .  S
C207        C514   1.477       .  S
C207        C629   1.468   1_455  S
Zn208       O212   1.980   1_655  S
Zn208       O213   2.034   1_655  S
Zn208       O217   2.041       .  S
Zn208       O224   1.884       .  S
Zn209       O212   1.882       .  S
Zn209       O214   1.871       .  S
Zn209       O216   2.017       .  S
Zn209       O220   2.060       .  S
Zn210       O212   1.950   1_655  S
Zn210       O215   2.073       .  S
Zn210       O218   1.929       .  S
Zn210       O221   2.059       .  S
Zn211       O212   1.875   1_655  S
Zn211       O219   2.077       .  S
Zn211       O222   2.140   1_655  S
Zn211       O223   1.952       .  S
O213        C225   1.271       .  A
O214        C226   1.274   1_455  A
O215        C227   1.270       .  A
O216        C225   1.267       .  A
O217        C227   1.269       .  A
O218        C226   1.277       .  A
O219        C228   1.276       .  A
O220        C229   1.275       .  A
O221        C228   1.275       .  A
O222        C229   1.289       .  A
O223        C230   1.291       .  A
O224        C230   1.267       .  A
C225       C1109   1.493       .  S
C226        C517   1.387   1_655  S
C227       C1445   1.518       .  S
C228       C1333   1.505       .  S
C229       C1285   1.528       .  S
C230        C498   1.416       .  S
Zn231       O235   1.948   1_655  S
Zn231       O236   2.105       .  S
Zn231       O240   2.118   1_655  S
Zn231       O247   1.931       .  S
Zn232       O235   1.970   1_655  S
Zn232       O237   1.893       .  S
Zn232       O239   2.054       .  S
Zn232       O243   2.086       .  S
Zn233       O235   1.954       .  S
Zn233       O238   2.020       .  S
Zn233       O241   1.874       .  S
Zn233       O244   2.083       .  S
Zn234       O235   1.974   1_655  S
Zn234       O242   2.075   1_655  S
Zn234       O245   2.027       .  S
Zn234       O246   1.888       .  S
O236        C248   1.275       .  A
O237        C249   1.272   1_655  A
O238        C250   1.266       .  A
O239        C248   1.269       .  A
O240        C250   1.283       .  A
O241        C249   1.270       .  A
O242        C251   1.274       .  A
O243        C252   1.277       .  A
O244        C251   1.275       .  A
O245        C252   1.268       .  A
O246        C253   1.269       .  A
O247        C253   1.282       .  A
C248       C1429   1.513       .  S
C249        C466   1.375       .  S
C250       C1125   1.512       .  S
C251       C1045   1.518       .  S
C252        C965   1.503       .  S
C253        C482   1.392       .  S
Zn254       O258   1.947   1_565  S
Zn254       O259   2.103   1_565  S
Zn254       O263   2.086       .  S
Zn254       O270   1.891       .  S
Zn255       O258   1.930       .  S
Zn255       O260   1.875       .  S
Zn255       O262   2.121       .  S
Zn255       O266   2.066       .  S
Zn256       O258   2.017   1_565  S
Zn256       O261   2.085       .  S
Zn256       O264   1.920       .  S
Zn256       O267   2.038       .  S
Zn257       O258   1.969       .  S
Zn257       O265   2.096   1_545  S
Zn257       O268   2.112       .  S
Zn257       O269   1.891   1_545  S
O259        C271   1.278       .  A
O260        C272   1.271   1_545  A
O261        C273   1.274       .  A
O262        C271   1.281       .  A
O263        C273   1.279       .  A
O264        C272   1.273       .  A
O265        C274   1.279       .  A
O266        C275   1.271       .  A
O267        C274   1.269       .  A
O268        C275   1.280       .  A
O269        C276   1.277       .  A
O270        C276   1.269       .  A
C271        C869   1.543       .  S
C272        C450   1.388   1_565  S
C273        C981   1.527       .  S
C274       C1410   1.516       .  S
C275       C1301   1.534       .  S
C276        C434   1.409       .  S
Zn277       O281   2.070   1_565  S
Zn277       O282   2.056   1_565  S
Zn277       O286   2.058       .  S
Zn277       O293   1.904       .  S
Zn278       O281   1.974       .  S
Zn278       O283   1.920       .  S
Zn278       O285   2.065       .  S
Zn278       O289   2.112       .  S
Zn279       O281   1.938   1_565  S
Zn279       O284   2.093       .  S
Zn279       O287   1.873       .  S
Zn279       O290   2.110       .  S
Zn280       O281   1.933       .  S
Zn280       O288   2.100   1_545  S
Zn280       O291   2.096       .  S
Zn280       O292   1.900       .  S
O282        C294   1.273       .  A
O283        C295   1.279       .  A
O284        C296   1.273       .  A
O285        C294   1.272       .  A
O286        C296   1.272       .  A
O287        C295   1.274   1_565  A
O288        C297   1.275       .  A
O289        C298   1.281       .  A
O290        C297   1.282       .  A
O291        C298   1.278       .  A
O292        C299   1.260       .  A
O293        C299   1.268   1_565  A
C294       C1253   1.515       .  S
C295        C418   1.379   1_545  S
C296       C1173   1.525       .  S
C297       C1029   1.540       .  S
C298        C386   1.541       .  S
C299        C402   1.379       .  S
Zn300       O304   1.898   1_655  S
Zn300       O305   2.064       .  S
Zn300       O309   2.167   1_655  S
Zn300       O316   1.981       .  S
Zn301       O304   1.930   1_655  S
Zn301       O306   1.985       .  S
Zn301       O308   2.101       .  S
Zn301       O312   2.140       .  S
Zn302       O304   1.949       .  S
Zn302       O307   1.957       .  S
Zn302       O310   1.802       .  S
Zn302       O313   2.050       .  S
Zn303       O304   1.990   1_655  S
Zn303       O311   2.073   1_655  S
Zn303       O314   2.021       .  S
Zn303       O315   1.897       .  S
O305        C317   1.272       .  A
O306        C318   1.295   1_655  A
O307        C319   1.260       .  A
O308        C317   1.279       .  A
O309        C319   1.290       .  A
O310        C318   1.254       .  A
O311        C320   1.272       .  A
O312        C321   1.276       .  A
O313        C320   1.272       .  A
O314        C321   1.267       .  A
O315        C322   1.271       .  A
O316        C322   1.290       .  A
C317       C1349   1.523       .  S
C318        C370   1.395       .  S
C319       C1269   1.525       .  S
C320        C341   1.516       .  S
C321        C818   1.536       .  S
C322        C354   1.464       .  S
C323        C324   1.375       .  D
C323        C437   1.479   1_445  S
C323        C469   1.455   1_545  S
C324        C357   1.463   1_455  S
C324        C405   1.475       .  S
C325        C326   1.332       .  D
C325        C485   1.463       .  S
C325        C501   1.471       .  S
C326        C373   1.412       .  S
C326        C562   1.453       .  S
C327        C328   1.384   1_545  D
C327        C453   1.542       .  S
C327        C805   1.403       .  S
C328        C421   1.503       .  S
C328        C725   1.407       .  S
C329        C330   1.370   1_556  D
C329        C610   1.468       .  S
C329        C773   1.406       .  S
C330        C645   1.512       .  S
C330        C661   1.418   1_554  S
C331        C332   1.449       .  A
C331        C336   1.448       .  A
C331        C741   1.520       .  S
C332        C333   1.447       .  A
C332        C693   1.541       .  S
C333        C334   1.451       .  A
C333        C389   1.542       .  S
C334        C335   1.450       .  A
C334        C338   1.514       .  S
C335        C336   1.441       .  A
C335        C530   1.547       .  S
C336        C578   1.530       .  S
C337        C338   1.406       .  A
C337        C342   1.418       .  A
C337        H344   1.081       .  S
C338        C339   1.423       .  A
C339        C340   1.419       .  A
C339        C346   1.521       .  S
C340        C341   1.412       .  A
C340        H345   1.084       .  S
C341        C342   1.422       .  A
C342        C343   1.515       .  S
C343        F347   1.384       .  S
C343        F348   1.384       .  S
C343        F349   1.381       .  S
C346        F350   1.383       .  S
C346        F351   1.381       .  S
C346        F352   1.380       .  S
C353        C354   1.399       .  A
C353        C358   1.401       .  A
C353        H360   1.084       .  S
C354        C355   1.403       .  A
C355        C356   1.389       .  A
C355        C362   1.514       .  S
C356        C357   1.416       .  A
C356        H361   1.084   1_655  S
C357        C358   1.426       .  A
C358        C359   1.522       .  S
C359        F363   1.382       .  S
C359        F364   1.382   1_655  S
C359        F365   1.379       .  S
C362        F366   1.383       .  S
C362        F367   1.383       .  S
C362        F368   1.380       .  S
C369        C370   1.385       .  A
C369        C374   1.368       .  A
C369        H376   1.088       .  S
C370        C371   1.404       .  A
C371        C372   1.374       .  A
C371        C378   1.513       .  S
C372        C373   1.397       .  A
C372        H377   1.083       .  S
C373        C374   1.411       .  A
C374        C375   1.516   1_455  S
C375        F379   1.384       .  S
C375        F380   1.382       .  S
C375        F381   1.378       .  S
C378        F382   1.381       .  S
C378        F383   1.384       .  S
C378        F384   1.385       .  S
C385        C386   1.414       .  A
C385        C390   1.427       .  A
C385        H392   1.084       .  S
C386        C387   1.428       .  A
C387        C388   1.429       .  A
C387        C394   1.518       .  S
C388        C389   1.412       .  A
C388        H393   1.081       .  S
C389        C390   1.429       .  A
C390        C391   1.517       .  S
C391        F395   1.382       .  S
C391        F396   1.381       .  S
C391        F397   1.383       .  S
C394        F398   1.381       .  S
C394        F399   1.385       .  S
C394        F400   1.380       .  S
C401        C402   1.403       .  A
C401        C406   1.379       .  A
C401        H408   1.085       .  S
C402        C403   1.420   1_545  A
C403        C404   1.392   1_565  A
C403        C410   1.535       .  S
C404        C405   1.398       .  A
C404        H409   1.080   1_545  S
C405        C406   1.384       .  A
C406        C407   1.505       .  S
C407        F411   1.385       .  S
C407        F412   1.379       .  S
C407        F413   1.385       .  S
C410        F414   1.388       .  S
C410        F415   1.369       .  S
C410        F416   1.377       .  S
C417        C418   1.407   1_545  A
C417        C422   1.371   1_545  A
C417        H424   1.090       .  S
C418        C419   1.419       .  A
C419        C420   1.407       .  A
C419        C426   1.519       .  S
C420        C421   1.404       .  A
C420        H425   1.082       .  S
C421        C422   1.396       .  A
C422        C423   1.506       .  S
C423        F427   1.383       .  S
C423        F428   1.379       .  S
C423        F429   1.383       .  S
C426        F430   1.377       .  S
C426        F431   1.385       .  S
C426        F432   1.380       .  S
C433        C434   1.403       .  A
C433        C438   1.382       .  A
C433        H440   1.086       .  S
C434        C435   1.401       .  A
C435        C436   1.358       .  A
C435        C442   1.528   1_565  S
C436        C437   1.411       .  A
C436        H441   1.077       .  S
C437        C438   1.413       .  A
C438        C439   1.514       .  S
C439        F443   1.386       .  S
C439        F444   1.372       .  S
C439        F445   1.381       .  S
C442        F446   1.384       .  S
C442        F447   1.368   1_545  S
C442        F448   1.379       .  S
C449        C450   1.400       .  A
C449        C454   1.382       .  A
C449        H456   1.089   1_545  S
C450        C451   1.423       .  A
C451        C452   1.411       .  A
C451        C458   1.514       .  S
C452        C453   1.420       .  A
C452        H457   1.079       .  S
C453        C454   1.386       .  A
C454        C455   1.500       .  S
C455        F459   1.382       .  S
C455        F460   1.377       .  S
C455        F461   1.374       .  S
C458        F462   1.378       .  S
C458        F463   1.381   1_545  S
C458        F464   1.382       .  S
C465        C466   1.393       .  A
C465        C470   1.385       .  A
C465        H472   1.085       .  S
C466        C467   1.396       .  A
C467        C468   1.361       .  A
C467        C474   1.534   1_455  S
C468        C469   1.408       .  A
C468        H473   1.073       .  S
C469        C470   1.412       .  A
C470        C471   1.510       .  S
C471        F475   1.385       .  S
C471        F476   1.380   1_565  S
C471        F477   1.382       .  S
C474        F478   1.385       .  S
C474        F479   1.383       .  S
C474        F480   1.384       .  S
C481        C482   1.394   1_455  A
C481        C486   1.377       .  A
C481        H488   1.089       .  S
C482        C483   1.399       .  A
C483        C484   1.371       .  A
C483        C490   1.509       .  S
C484        C485   1.403   1_655  A
C484        H489   1.075       .  S
C485        C486   1.415       .  A
C486        C487   1.517       .  S
C487        F491   1.383       .  S
C487        F492   1.380       .  S
C487        F493   1.374       .  S
C490        F494   1.378       .  S
C490        F495   1.377       .  S
C490        F496   1.384       .  S
C497        C498   1.395       .  A
C497        C502   1.399       .  A
C497        H504   1.085       .  S
C498        C499   1.403   1_655  A
C499        C500   1.397       .  A
C499        C506   1.514       .  S
C500        C501   1.400       .  A
C500        H505   1.079       .  S
C501        C502   1.420   1_455  A
C502        C503   1.508       .  S
C503        F507   1.384       .  S
C503        F508   1.377       .  S
C503        F509   1.382       .  S
C506        F510   1.383       .  S
C506        F511   1.385   1_455  S
C506        F512   1.378       .  S
C513        C514   1.410       .  A
C513        C518   1.386   1_455  A
C513        H520   1.070       .  S
C514        C515   1.412       .  A
C515        C516   1.384       .  A
C515        C522   1.504       .  S
C516        C517   1.387       .  A
C516        H521   1.086       .  S
C517        C518   1.401   1_455  A
C518        C519   1.528       .  S
C519        F523   1.380       .  S
C519        F524   1.382       .  S
C519        F525   1.386       .  S
C522        F526   1.378       .  S
C522        F527   1.374       .  S
C522        F528   1.385       .  S
C529        C530   1.413       .  A
C529        C534   1.431       .  A
C529        H536   1.081       .  S
C530        C531   1.432       .  A
C531        C532   1.431       .  A
C531        C538   1.516       .  S
C532        C533   1.410       .  A
C532        H537   1.084       .  S
C533        C534   1.424       .  A
C534        C535   1.515       .  S
C535        F539   1.384       .  S
C535        F540   1.383       .  S
C535        F541   1.382       .  S
C538        F542   1.383       .  S
C538        F543   1.380       .  S
C538        F544   1.383       .  S
C545        C546   1.400       .  A
C545        C550   1.394       .  A
C545        H552   1.085       .  S
C546        C547   1.395   1_655  A
C547        C548   1.385       .  A
C547        C554   1.509       .  S
C548        C549   1.408   1_455  A
C548        H553   1.079       .  S
C549        C550   1.412       .  A
C550        C551   1.517       .  S
C551        F555   1.384       .  S
C551        F556   1.380       .  S
C551        F557   1.380       .  S
C554        F558   1.384       .  S
C554        F559   1.384       .  S
C554        F560   1.382       .  S
C561        C562   1.400   1_655  A
C561        C566   1.367       .  A
C561        H568   1.078       .  S
C562        C563   1.415       .  A
C563        C564   1.384       .  A
C563        C570   1.525       .  S
C564        C565   1.391       .  A
C564        H569   1.085       .  S
C565        C566   1.396   1_455  A
C566        C567   1.521       .  S
C567        F571   1.384       .  S
C567        F572   1.384       .  S
C567        F573   1.383       .  S
C570        F574   1.378       .  S
C570        F575   1.376       .  S
C570        F576   1.384       .  S
C577        C578   1.405       .  A
C577        C582   1.424       .  A
C577        H584   1.082       .  S
C578        C579   1.427       .  A
C579        C580   1.424       .  A
C579        C586   1.517       .  S
C580        C581   1.411       .  A
C580        H585   1.084       .  S
C581        C582   1.435       .  A
C582        C583   1.521       .  S
C583        F587   1.385       .  S
C583        F588   1.383       .  S
C583        F589   1.384       .  S
C586        F590   1.383       .  S
C586        F591   1.380       .  S
C586        F592   1.383       .  S
C593        C594   1.393       .  A
C593        C598   1.401   1_554  A
C593        H600   1.081   1_554  S
C594        C595   1.397       .  A
C595        C596   1.384       .  A
C595        C602   1.492       .  S
C596        C597   1.400       .  A
C596        H601   1.085       .  S
C597        C598   1.427   1_554  A
C598        C599   1.523       .  S
C599        F603   1.383       .  S
C599        F604   1.378       .  S
C599        F605   1.386       .  S
C602        F606   1.382       .  S
C602        F607   1.376       .  S
C602        F608   1.383       .  S
C609        C610   1.403       .  A
C609        C614   1.398       .  A
C609        H616   1.080       .  S
C610        C611   1.397   1_556  A
C611        C612   1.368       .  A
C611        C618   1.508       .  S
C612        C613   1.396       .  A
C612        H617   1.087       .  S
C613        C614   1.430   1_554  A
C614        C615   1.532       .  S
C615        F619   1.375       .  S
C615        F620   1.388       .  S
C615        F621   1.380       .  S
C618        F622   1.382       .  S
C618        F623   1.382       .  S
C618        F624   1.385       .  S
C625        C626   1.395       .  A
C625        C630   1.386       .  A
C625        H632   1.082       .  S
C626        C627   1.410       .  A
C627        C628   1.359       .  A
C627        C634   1.532       .  S
C628        C629   1.406       .  A
C628        H633   1.083       .  S
C629        C630   1.424       .  A
C630        C631   1.526       .  S
C631        F635   1.387       .  S
C631        F636   1.369       .  S
C631        F637   1.366   1_556  S
C634        F638   1.382       .  S
C634        F639   1.385       .  S
C634        F640   1.381       .  S
C641        C642   1.404       .  A
C641        C646   1.383   1_556  A
C641        H648   1.089       .  S
C642        C643   1.419       .  A
C643        C644   1.403   1_556  A
C643        C650   1.508       .  S
C644        C645   1.409       .  A
C644        H649   1.083       .  S
C645        C646   1.382       .  A
C646        C647   1.506       .  S
C647        F651   1.376       .  S
C647        F652   1.377       .  S
C647        F653   1.370       .  S
C650        F654   1.384       .  S
C650        F655   1.379   1_556  S
C650        F656   1.383       .  S
C657        C658   1.393       .  A
C657        C662   1.365       .  A
C657        H664   1.087       .  S
C658        C659   1.409   1_556  A
C659        C660   1.371       .  A
C659        C666   1.516       .  S
C660        C661   1.392   1_554  A
C660        H665   1.086       .  S
C661        C662   1.412       .  A
C662        C663   1.522       .  S
C663        F667   1.383       .  S
C663        F668   1.383       .  S
C663        F669   1.368       .  S
C666        F670   1.383       .  S
C666        F671   1.385       .  S
C666        F672   1.382       .  S
C673        C674   1.402   1_554  A
C673        C678   1.377       .  A
C673        H680   1.085       .  S
C674        C675   1.397       .  A
C675        C676   1.372   1_556  A
C675        C682   1.523       .  S
C676        C677   1.405       .  A
C676        H681   1.078   1_554  S
C677        C678   1.402       .  A
C678        C679   1.517       .  S
C679        F683   1.387       .  S
C679        F684   1.376       .  S
C679        F685   1.382       .  S
C682        F686   1.382       .  S
C682        F687   1.385       .  S
C682        F688   1.381       .  S
C689        C690   1.412       .  A
C689        C694   1.432       .  A
C689        H696   1.084       .  S
C690        C691   1.427       .  A
C691        C692   1.427       .  A
C691        C698   1.510       .  S
C692        C693   1.407       .  A
C692        H697   1.080       .  S
C693        C694   1.430       .  A
C694        C695   1.516       .  S
C695        F699   1.383       .  S
C695        F700   1.381       .  S
C695        F701   1.383       .  S
C698        F702   1.382       .  S
C698        F703   1.374       .  S
C698        F704   1.384       .  S
C705        C706   1.432       .  A
C705        C710   1.367       .  A
C705        H712   1.078       .  S
C706        C707   1.443       .  A
C707        C708   1.407       .  A
C707        C714   1.515   1_545  S
C708        C709   1.397       .  A
C708        H713   1.082       .  S
C709        C710   1.373       .  A
C710        C711   1.504       .  S
C711        F715   1.385       .  S
C711        F716   1.380       .  S
C711        F717   1.381       .  S
C714        F718   1.382       .  S
C714        F719   1.372       .  S
C714        F720   1.384       .  S
C721        C722   1.401   1_565  A
C721        C726   1.379       .  A
C721        H728   1.086       .  S
C722        C723   1.398       .  A
C723        C724   1.363       .  A
C723        C730   1.517       .  S
C724        C725   1.402   1_545  A
C724        H729   1.085       .  S
C725        C726   1.400       .  A
C726        C727   1.526       .  S
C727        F731   1.383       .  S
C727        F732   1.382       .  S
C727        F733   1.382       .  S
C730        F734   1.383       .  S
C730        F735   1.385       .  S
C730        F736   1.382       .  S
C737        C738   1.413       .  A
C737        C742   1.420       .  A
C737        H744   1.084       .  S
C738        C739   1.435       .  A
C739        C740   1.422       .  A
C739        C746   1.519       .  S
C740        C741   1.403       .  A
C740        H745   1.081       .  S
C741        C742   1.423       .  A
C742        C743   1.518       .  S
C743        F747   1.383       .  S
C743        F748   1.380       .  S
C743        F749   1.383       .  S
C746        F750   1.382       .  S
C746        F751   1.383       .  S
C746        F752   1.385       .  S
C753        C754   1.409       .  A
C753        C758   1.381       .  A
C753        H760   1.085       .  S
C754        C755   1.417       .  A
C755        C756   1.367   1_556  A
C755        C762   1.520       .  S
C756        C757   1.397       .  A
C756        H761   1.083       .  S
C757        C758   1.390   1_554  A
C758        C759   1.527   1_556  S
C759        F763   1.381       .  S
C759        F764   1.380       .  S
C759        F765   1.383   1_554  S
C762        F766   1.384   1_556  S
C762        F767   1.373       .  S
C762        F768   1.384   1_556  S
C769        C770   1.402   1_556  A
C769        C774   1.391       .  A
C769        H776   1.085       .  S
C770        C771   1.426       .  A
C771        C772   1.372       .  A
C771        C778   1.528       .  S
C772        C773   1.397   1_554  A
C772        H777   1.084       .  S
C773        C774   1.397       .  A
C774        C775   1.525       .  S
C775        F779   1.383       .  S
C775        F780   1.375       .  S
C775        F781   1.385       .  S
C778        F782   1.380       .  S
C778        F783   1.384       .  S
C778        F784   1.379       .  S
C785        C786   1.388       .  A
C785        C790   1.388   1_545  A
C785        H792   1.083       .  S
C786        C787   1.409       .  A
C787        C788   1.380   1_545  A
C787        C794   1.530       .  S
C788        C789   1.407       .  A
C788        H793   1.081       .  S
C789        C790   1.427       .  A
C790        C791   1.518       .  S
C791        F795   1.387       .  S
C791        F796   1.377       .  S
C791        F797   1.372   1_556  S
C794        F798   1.382       .  S
C794        F799   1.389       .  S
C794        F800   1.371       .  S
C801        C802   1.399       .  A
C801        C806   1.363       .  A
C801        H808   1.086       .  S
C802        C803   1.408   1_545  A
C803        C804   1.360       .  A
C803        C810   1.532       .  S
C804        C805   1.400   1_565  A
C804        H809   1.084       .  S
C805        C806   1.404       .  A
C806        C807   1.523       .  S
C807        F811   1.382       .  S
C807        F812   1.381       .  S
C807        F813   1.384       .  S
C810        F814   1.383       .  S
C810        F815   1.384       .  S
C810        F816   1.385       .  S
C817        C818   1.408       .  A
C817        C822   1.416       .  A
C817        H824   1.084       .  S
C818        C819   1.427       .  A
C819        C820   1.432       .  A
C819        C826   1.515       .  S
C820        C821   1.416       .  A
C820        H825   1.082       .  S
C821        C822   1.438       .  A
C822        C823   1.520       .  S
C823        F827   1.378       .  S
C823        F828   1.375       .  S
C823        F829   1.381       .  S
C826        F830   1.383       .  S
C826        F831   1.383       .  S
C826        F832   1.385       .  S
C833        C834   1.406       .  A
C833        C838   1.414       .  A
C833        H840   1.067       .  S
C834        C835   1.424       .  A
C835        C836   1.425       .  A
C835        C842   1.516       .  S
C836        C837   1.410       .  A
C836        H841   1.083       .  S
C837        C838   1.410       .  A
C838        C839   1.521       .  S
C839        F843   1.384       .  S
C839        F844   1.384       .  S
C839        F845   1.383       .  S
C842        F846   1.380       .  S
C842        F847   1.379       .  S
C842        F848   1.384       .  S
C849        C850   1.413       .  A
C849        C854   1.430       .  A
C849        H856   1.082       .  S
C850        C851   1.437       .  A
C851        C852   1.416       .  A
C851        C858   1.504       .  S
C852        C853   1.398       .  A
C852        H857   1.085       .  S
C853        C854   1.429       .  A
C854        C855   1.516       .  S
C855        F859   1.384       .  S
C855        F860   1.383       .  S
C855        F861   1.383       .  S
C858        F862   1.377       .  S
C858        F863   1.373       .  S
C858        F864   1.374       .  S
C865        C866   1.417       .  A
C865        C870   1.432       .  A
C865        H872   1.079       .  S
C866        C867   1.436       .  A
C867        C868   1.426       .  A
C867        C874   1.499       .  S
C868        C869   1.402       .  A
C868        H873   1.085       .  S
C869        C870   1.422       .  A
C870        C871   1.502       .  S
C871        F875   1.369       .  S
C871        F876   1.379       .  S
C871        F877   1.381       .  S
C874        F878   1.377       .  S
C874        F879   1.374       .  S
C874        F880   1.384       .  S
C881        C882   1.416       .  A
C881        C886   1.440       .  A
C881        H888   1.084       .  S
C882        C883   1.412       .  A
C883        C884   1.424       .  A
C883        C890   1.509       .  S
C884        C885   1.412       .  A
C884        H889   1.058       .  S
C885        C886   1.441       .  A
C886        C887   1.512       .  S
C887        F891   1.383       .  S
C887        F892   1.381       .  S
C887        F893   1.383       .  S
C890        F894   1.381       .  S
C890        F895   1.382       .  S
C890        F896   1.370       .  S
C897        C898   1.404       .  A
C897        C902   1.413       .  A
C897        H904   1.083       .  S
C898        C899   1.440       .  A
C899        C900   1.420       .  A
C899        C906   1.544       .  S
C900        C901   1.418       .  A
C900        H905   1.084       .  S
C901        C902   1.424       .  A
C902        C903   1.518       .  S
C903        F907   1.385       .  S
C903        F908   1.383       .  S
C903        F909   1.379       .  S
C906        F910   1.376       .  S
C906        F911   1.381       .  S
C906        F912   1.372       .  S
C913        C914   1.411       .  A
C913        C918   1.413       .  A
C913        H920   1.075       .  S
C914        C915   1.424       .  A
C915        C916   1.413       .  A
C915        C922   1.512       .  S
C916        C917   1.406       .  A
C916        H921   1.084       .  S
C917        C918   1.415       .  A
C918        C919   1.524       .  S
C919        F923   1.376       .  S
C919        F924   1.381       .  S
C919        F925   1.382       .  S
C922        F926   1.380       .  S
C922        F927   1.380       .  S
C922        F928   1.383       .  S
C929        C930   1.400       .  A
C929        C934   1.415       .  A
C929        H936   1.085       .  S
C930        C931   1.430       .  A
C931        C932   1.430       .  A
C931        C938   1.517       .  S
C932        C933   1.416       .  A
C932        H937   1.082       .  S
C933        C934   1.435       .  A
C934        C935   1.505       .  S
C935        F939   1.379       .  S
C935        F940   1.368       .  S
C935        F941   1.385       .  S
C938        F942   1.381       .  S
C938        F943   1.380       .  S
C938        F944   1.386       .  S
C945        C946   1.419       .  A
C945        C950   1.432       .  A
C945        H952   1.082       .  S
C946        C947   1.437       .  A
C947        C948   1.405       .  A
C947        C954   1.499       .  S
C948        C949   1.395       .  A
C948        H953   1.085       .  S
C949        C950   1.427       .  A
C950        C951   1.515       .  S
C951        F955   1.385       .  S
C951        F956   1.383       .  S
C951        F957   1.383       .  S
C954        F958   1.381       .  S
C954        F959   1.358       .  S
C954        F960   1.385       .  S
C961        C962   1.404       .  A
C961        C966   1.410       .  A
C961        H968   1.080       .  S
C962        C963   1.442       .  A
C963        C964   1.420       .  A
C963        C970   1.538       .  S
C964        C965   1.408       .  A
C964        H969   1.084       .  S
C965        C966   1.417       .  A
C966        C967   1.516       .  S
C967        F971   1.385       .  S
C967        F972   1.384       .  S
C967        F973   1.378       .  S
C970        F974   1.373       .  S
C970        F975   1.383       .  S
C970        F976   1.383       .  S
C977        C978   1.409       .  A
C977        C982   1.419       .  A
C977        H984   1.074       .  S
C978        C979   1.436       .  A
C979        C980   1.430       .  A
C979        C986   1.515       .  S
C980        C981   1.410       .  A
C980        H985   1.084       .  S
C981        C982   1.419       .  A
C982        C983   1.516       .  S
C983        F987   1.378       .  S
C983        F988   1.368       .  S
C983        F989   1.383       .  S
C986        F990   1.382       .  S
C986        F991   1.378       .  S
C986        F992   1.380       .  S
C993        C994   1.406       .  A
C993        C998   1.418       .  A
C993       H1000   1.083       .  S
C994        C995   1.434       .  A
C995        C996   1.421       .  A
C995       C1002   1.518       .  S
C996        C997   1.405       .  A
C996       H1001   1.084       .  S
C997        C998   1.425       .  A
C998        C999   1.518       .  S
C999       F1003   1.384       .  S
C999       F1004   1.383       .  S
C999       F1005   1.382       .  S
C1002      F1006   1.381       .  S
C1002      F1007   1.376       .  S
C1002      F1008   1.379       .  S
C1009      C1010   1.415       .  A
C1009      C1014   1.426       .  A
C1009      H1016   1.082       .  S
C1010      C1011   1.438       .  A
C1011      C1012   1.416       .  A
C1011      C1018   1.509       .  S
C1012      C1013   1.397       .  A
C1012      H1017   1.085       .  S
C1013      C1014   1.424       .  A
C1014      C1015   1.516       .  S
C1015      F1019   1.385       .  S
C1015      F1020   1.383       .  S
C1015      F1021   1.383       .  S
C1018      F1022   1.382       .  S
C1018      F1023   1.368       .  S
C1018      F1024   1.383       .  S
C1025      C1026   1.410       .  A
C1025      C1030   1.428       .  A
C1025      H1032   1.082       .  S
C1026      C1027   1.431       .  A
C1027      C1028   1.421       .  A
C1027      C1034   1.509       .  S
C1028      C1029   1.408       .  A
C1028      H1033   1.084       .  S
C1029      C1030   1.435       .  A
C1030      C1031   1.517       .  S
C1031      F1035   1.385       .  S
C1031      F1036   1.383       .  S
C1031      F1037   1.379       .  S
C1034      F1038   1.381       .  S
C1034      F1039   1.372       .  S
C1034      F1040   1.384       .  S
C1041      C1042   1.411       .  A
C1041      C1046   1.423       .  A
C1041      H1048   1.078       .  S
C1042      C1043   1.427       .  A
C1043      C1044   1.421       .  A
C1043      C1050   1.514       .  S
C1044      C1045   1.407       .  A
C1044      H1049   1.084       .  S
C1045      C1046   1.422       .  A
C1046      C1047   1.518       .  S
C1047      F1051   1.384       .  S
C1047      F1052   1.383       .  S
C1047      F1053   1.383       .  S
C1050      F1054   1.382       .  S
C1050      F1055   1.379       .  S
C1050      F1056   1.383       .  S
C1057      C1058   1.411       .  A
C1057      C1062   1.426       .  A
C1057      H1064   1.082       .  S
C1058      C1059   1.427       .  A
C1059      C1060   1.419       .  A
C1059      C1066   1.514       .  S
C1060      C1061   1.410       .  A
C1060      H1065   1.084       .  S
C1061      C1062   1.427       .  A
C1062      C1063   1.516       .  S
C1063      F1067   1.385       .  S
C1063      F1068   1.382       .  S
C1063      F1069   1.383       .  S
C1066      F1070   1.382       .  S
C1066      F1071   1.378       .  S
C1066      F1072   1.383       .  S
C1073      C1074   1.404       .  A
C1073      C1078   1.416       .  A
C1073      H1080   1.077       .  S
C1074      C1075   1.428       .  A
C1075      C1076   1.425       .  A
C1075      C1082   1.516       .  S
C1076      C1077   1.413       .  A
C1076      H1081   1.084       .  S
C1077      C1078   1.435       .  A
C1078      C1079   1.525       .  S
C1079      F1083   1.385       .  S
C1079      F1084   1.384       .  S
C1079      F1085   1.383       .  S
C1082      F1086   1.382       .  S
C1082      F1087   1.379       .  S
C1082      F1088   1.382       .  S
C1089      C1090   1.408       .  A
C1089      C1094   1.424       .  A
C1089      H1096   1.082       .  S
C1090      C1091   1.434       .  A
C1091      C1092   1.422       .  A
C1091      C1098   1.521       .  S
C1092      C1093   1.409       .  A
C1092      H1097   1.084       .  S
C1093      C1094   1.431       .  A
C1094      C1095   1.519       .  S
C1095      F1099   1.385       .  S
C1095      F1100   1.384       .  S
C1095      F1101   1.382       .  S
C1098      F1102   1.382       .  S
C1098      F1103   1.378       .  S
C1098      F1104   1.384       .  S
C1105      C1106   1.404       .  A
C1105      C1110   1.409       .  A
C1105      H1112   1.083       .  S
C1106      C1107   1.431       .  A
C1107      C1108   1.408       .  A
C1107      C1114   1.532       .  S
C1108      C1109   1.407       .  A
C1108      H1113   1.085       .  S
C1109      C1110   1.421       .  A
C1110      C1111   1.519       .  S
C1111      F1115   1.385       .  S
C1111      F1116   1.382       .  S
C1111      F1117   1.383       .  S
C1114      F1118   1.371       .  S
C1114      F1119   1.381       .  S
C1114      F1120   1.379       .  S
C1121      C1122   1.416       .  A
C1121      C1126   1.429       .  A
C1121      H1128   1.082       .  S
C1122      C1123   1.435       .  A
C1123      C1124   1.412       .  A
C1123      C1130   1.504       .  S
C1124      C1125   1.393       .  A
C1124      H1129   1.086       .  S
C1125      C1126   1.424       .  A
C1126      C1127   1.515       .  S
C1127      F1131   1.384       .  S
C1127      F1132   1.384       .  S
C1127      F1133   1.382       .  S
C1130      F1134   1.380       .  S
C1130      F1135   1.368       .  S
C1130      F1136   1.382       .  S
C1137      C1138   1.406       .  A
C1137      C1142   1.417       .  A
C1137      H1144   1.082       .  S
C1138      C1139   1.433       .  A
C1139      C1140   1.414       .  A
C1139      C1146   1.522       .  S
C1140      C1141   1.408       .  A
C1140      H1145   1.084       .  S
C1141      C1142   1.429       .  A
C1142      C1143   1.519       .  S
C1143      F1147   1.385       .  S
C1143      F1148   1.383       .  S
C1143      F1149   1.382       .  S
C1146      F1150   1.381       .  S
C1146      F1151   1.378       .  S
C1146      F1152   1.383       .  S
C1153      C1154   1.416       .  A
C1153      C1158   1.423       .  A
C1153      H1160   1.060       .  S
C1154      C1155   1.439       .  A
C1155      C1156   1.433       .  A
C1155      C1162   1.507       .  S
C1156      C1157   1.412       .  A
C1156      H1161   1.084       .  S
C1157      C1158   1.407       .  A
C1158      C1159   1.515       .  S
C1159      F1163   1.374       .  S
C1159      F1164   1.381       .  S
C1159      F1165   1.385       .  S
C1162      F1166   1.381       .  S
C1162      F1167   1.376       .  S
C1162      F1168   1.384       .  S
C1169      C1170   1.413       .  A
C1169      C1174   1.428       .  A
C1169      H1176   1.082       .  S
C1170      C1171   1.427       .  A
C1171      C1172   1.415       .  A
C1171      C1178   1.511       .  S
C1172      C1173   1.407       .  A
C1172      H1177   1.085       .  S
C1173      C1174   1.428       .  A
C1174      C1175   1.518       .  S
C1175      F1179   1.385       .  S
C1175      F1180   1.381       .  S
C1175      F1181   1.381       .  S
C1178      F1182   1.382       .  S
C1178      F1183   1.372       .  S
C1178      F1184   1.382       .  S
C1185      C1186   1.405       .  A
C1185      C1190   1.416       .  A
C1185      H1192   1.078       .  S
C1186      C1187   1.427       .  A
C1187      C1188   1.419       .  A
C1187      C1194   1.517       .  S
C1188      C1189   1.409       .  A
C1188      H1193   1.084       .  S
C1189      C1190   1.432       .  A
C1190      C1191   1.525       .  S
C1191      F1195   1.385       .  S
C1191      F1196   1.384       .  S
C1191      F1197   1.382       .  S
C1194      F1198   1.382       .  S
C1194      F1199   1.379       .  S
C1194      F1200   1.383       .  S
C1201      C1202   1.404       .  A
C1201      C1206   1.425       .  A
C1201      H1208   1.083       .  S
C1202      C1203   1.405       .  A
C1203      C1204   1.424       .  A
C1203      C1210   1.520       .  S
C1204      C1205   1.422       .  A
C1204      H1209   1.060       .  S
C1205      C1206   1.436       .  A
C1206      C1207   1.505       .  S
C1207      F1211   1.384       .  S
C1207      F1212   1.377       .  S
C1207      F1213   1.379       .  S
C1210      F1214   1.387       .  S
C1210      F1215   1.380       .  S
C1210      F1216   1.374       .  S
C1217      C1218   1.402       .  A
C1217      C1222   1.417       .  A
C1217      H1224   1.083       .  S
C1218      C1219   1.434       .  A
C1219      C1220   1.413       .  A
C1219      C1226   1.524       .  S
C1220      C1221   1.409       .  A
C1220      H1225   1.084       .  S
C1221      C1222   1.432       .  A
C1222      C1223   1.520       .  S
C1223      F1227   1.385       .  S
C1223      F1228   1.383       .  S
C1223      F1229   1.383       .  S
C1226      F1230   1.382       .  S
C1226      F1231   1.378       .  S
C1226      F1232   1.375       .  S
C1233      C1234   1.407       .  A
C1233      C1238   1.422       .  A
C1233      H1240   1.084       .  S
C1234      C1235   1.429       .  A
C1235      C1236   1.430       .  A
C1235      C1242   1.518       .  S
C1236      C1237   1.414       .  A
C1236      H1241   1.079       .  S
C1237      C1238   1.435       .  A
C1238      C1239   1.510       .  S
C1239      F1243   1.378       .  S
C1239      F1244   1.381       .  S
C1239      F1245   1.375       .  S
C1242      F1246   1.378       .  S
C1242      F1247   1.386       .  S
C1242      F1248   1.385       .  S
C1249      C1250   1.414       .  A
C1249      C1254   1.423       .  A
C1249      H1256   1.080       .  S
C1250      C1251   1.431       .  A
C1251      C1252   1.414       .  A
C1251      C1258   1.512       .  S
C1252      C1253   1.404       .  A
C1252      H1257   1.085       .  S
C1253      C1254   1.422       .  A
C1254      C1255   1.521       .  S
C1255      F1259   1.384       .  S
C1255      F1260   1.380       .  S
C1255      F1261   1.386       .  S
C1258      F1262   1.379       .  S
C1258      F1263   1.374       .  S
C1258      F1264   1.378       .  S
C1265      C1266   1.402       .  A
C1265      C1270   1.417       .  A
C1265      H1272   1.083       .  S
C1266      C1267   1.447       .  A
C1267      C1268   1.420       .  A
C1267      C1274   1.518       .  S
C1268      C1269   1.399       .  A
C1268      H1273   1.085       .  S
C1269      C1270   1.435       .  A
C1270      C1271   1.520       .  S
C1271      F1275   1.385       .  S
C1271      F1276   1.377       .  S
C1271      F1277   1.384       .  S
C1274      F1278   1.374       .  S
C1274      F1279   1.378       .  S
C1274      F1280   1.384       .  S
C1281      C1282   1.424       .  A
C1281      C1286   1.438       .  A
C1281      H1288   1.082       .  S
C1282      C1283   1.445       .  A
C1283      C1284   1.415       .  A
C1283      C1290   1.497       .  S
C1284      C1285   1.390       .  A
C1284      H1289   1.086       .  S
C1285      C1286   1.429       .  A
C1286      C1287   1.517       .  S
C1287      F1291   1.385       .  S
C1287      F1292   1.382       .  S
C1287      F1293   1.383       .  S
C1290      F1294   1.386       .  S
C1290      F1295   1.362       .  S
C1290      F1296   1.381       .  S
C1297      C1298   1.405       .  A
C1297      C1302   1.422       .  A
C1297      H1304   1.081       .  S
C1298      C1299   1.424       .  A
C1299      C1300   1.423       .  A
C1299      C1306   1.517       .  S
C1300      C1301   1.414       .  A
C1300      H1305   1.084       .  S
C1301      C1302   1.435       .  A
C1302      C1303   1.522       .  S
C1303      F1307   1.385       .  S
C1303      F1308   1.377       .  S
C1303      F1309   1.382       .  S
C1306      F1310   1.383       .  S
C1306      F1311   1.381       .  S
C1306      F1312   1.383       .  S
C1313      C1314   1.407       .  A
C1313      C1318   1.419       .  A
C1313      H1320   1.082       .  S
C1314      C1315   1.421       .  A
C1315      C1316   1.415       .  A
C1315      C1322   1.516       .  S
C1316      C1317   1.412       .  A
C1316      H1321   1.084       .  S
C1317      C1318   1.430       .  A
C1318      C1319   1.520       .  S
C1319      F1323   1.384       .  S
C1319      F1324   1.384       .  S
C1319      F1325   1.383       .  S
C1322      F1326   1.384       .  S
C1322      F1327   1.379       .  S
C1322      F1328   1.383       .  S
C1329      C1330   1.409       .  A
C1329      C1334   1.420       .  A
C1329      H1336   1.083       .  S
C1330      C1331   1.428       .  A
C1331      C1332   1.415       .  A
C1331      C1338   1.516       .  S
C1332      C1333   1.402       .  A
C1332      H1337   1.084       .  S
C1333      C1334   1.418       .  A
C1334      C1335   1.513       .  S
C1335      F1339   1.384       .  S
C1335      F1340   1.379       .  S
C1335      F1341   1.384       .  S
C1338      F1342   1.380       .  S
C1338      F1343   1.376       .  S
C1338      F1344   1.385       .  S
C1345      C1346   1.411       .  A
C1345      C1350   1.423       .  A
C1345      H1352   1.081       .  S
C1346      C1347   1.434       .  A
C1347      C1348   1.422       .  A
C1347      C1354   1.518       .  S
C1348      C1349   1.407       .  A
C1348      H1353   1.085       .  S
C1349      C1350   1.424       .  A
C1350      C1351   1.517       .  S
C1351      F1355   1.385       .  S
C1351      F1356   1.383       .  S
C1351      F1357   1.382       .  S
C1354      F1358   1.383       .  S
C1354      F1359   1.380       .  S
C1354      F1360   1.382       .  S
C1361      C1362   1.411       .  A
C1361      C1366   1.421       .  A
C1361      H1368   1.082       .  S
C1362      C1363   1.435       .  A
C1363      C1364   1.423       .  A
C1363      C1370   1.515       .  S
C1364      C1365   1.403       .  A
C1364      H1369   1.085       .  S
C1365      C1366   1.420       .  A
C1366      C1367   1.509       .  S
C1367      F1371   1.385       .  S
C1367      F1372   1.383       .  S
C1367      F1373   1.383       .  S
C1370      F1374   1.383       .  S
C1370      F1375   1.376       .  S
C1370      F1376   1.383       .  S
C1377      C1378   1.412       .  A
C1377      C1382   1.426       .  A
C1377      H1384   1.084       .  S
C1378      C1379   1.427       .  A
C1379      C1380   1.417       .  A
C1379      C1386   1.521       .  S
C1380      C1381   1.408       .  A
C1380      H1385   1.073       .  S
C1381      C1382   1.432       .  A
C1382      C1383   1.517       .  S
C1383      F1387   1.383       .  S
C1383      F1388   1.381       .  S
C1383      F1389   1.383       .  S
C1386      F1390   1.385       .  S
C1386      F1391   1.382       .  S
C1386      F1392   1.384       .  S
C1393      C1394   1.404       .  A
C1393      C1398   1.422       .  A
C1393      H1400   1.083       .  S
C1394      C1395   1.431       .  A
C1395      C1396   1.417       .  A
C1395      C1402   1.519       .  S
C1396      C1397   1.409       .  A
C1396      H1401   1.084       .  S
C1397      C1398   1.433       .  A
C1398      C1399   1.519       .  S
C1399      F1403   1.385       .  S
C1399      F1404   1.382       .  S
C1399      F1405   1.384       .  S
C1402      F1406   1.384       .  S
C1402      F1407   1.378       .  S
C1402      F1408   1.380       .  S
C1409      C1410   1.411       .  A
C1409      C1414   1.426       .  A
C1409      H1416   1.084       .  S
C1410      C1411   1.415       .  A
C1411      C1412   1.415       .  A
C1411      C1418   1.521       .  S
C1412      C1413   1.412       .  A
C1412      H1417   1.065       .  S
C1413      C1414   1.436       .  A
C1414      C1415   1.514       .  S
C1415      F1419   1.383       .  S
C1415      F1420   1.380       .  S
C1415      F1421   1.383       .  S
C1418      F1422   1.382       .  S
C1418      F1423   1.380       .  S
C1418      F1424   1.381       .  S
C1425      C1426   1.410       .  A
C1425      C1430   1.415       .  A
C1425      H1432   1.082       .  S
C1426      C1427   1.431       .  A
C1427      C1428   1.421       .  A
C1427      C1434   1.518       .  S
C1428      C1429   1.406       .  A
C1428      H1433   1.085       .  S
C1429      C1430   1.418       .  A
C1430      C1431   1.509       .  S
C1431      F1435   1.385       .  S
C1431      F1436   1.381       .  S
C1431      F1437   1.383       .  S
C1434      F1438   1.383       .  S
C1434      F1439   1.377       .  S
C1434      F1440   1.383       .  S
C1441      C1442   1.409       .  A
C1441      C1446   1.418       .  A
C1441      H1448   1.082       .  S
C1442      C1443   1.421       .  A
C1443      C1444   1.413       .  A
C1443      C1450   1.516       .  S
C1444      C1445   1.411       .  A
C1444      H1449   1.084       .  S
C1445      C1446   1.427       .  A
C1446      C1447   1.519       .  S
C1447      F1451   1.384       .  S
C1447      F1452   1.384       .  S
C1447      F1453   1.383       .  S
C1450      F1454   1.384       .  S
C1450      F1455   1.378       .  S
C1450      F1456   1.382       .  S
C1457      C1458   1.412       .  A
C1457      C1462   1.421       .  A
C1457      H1464   1.082       .  S
C1458      C1459   1.429       .  A
C1459      C1460   1.420       .  A
C1459      C1466   1.518       .  S
C1460      C1461   1.407       .  A
C1460      H1465   1.085       .  S
C1461      C1462   1.419       .  A
C1462      C1463   1.515       .  S
C1463      F1467   1.384       .  S
C1463      F1468   1.383       .  S
C1463      F1469   1.382       .  S
C1466      F1470   1.383       .  S
C1466      F1471   1.381       .  S
C1466      F1472   1.382       .  S
C1473      C1474   1.408       .  A
C1473      C1478   1.419       .  A
C1473      H1480   1.081       .  S
C1474      C1475   1.423       .  A
C1475      C1476   1.410       .  A
C1475      C1482   1.519       .  S
C1476      C1477   1.411       .  A
C1476      H1481   1.084       .  S
C1477      C1478   1.427       .  A
C1478      C1479   1.519       .  S
C1479      F1483   1.385       .  S
C1479      F1484   1.383       .  S
C1479      F1485   1.383       .  S
C1482      F1486   1.382       .  S
C1482      F1487   1.378       .  S
C1482      F1488   1.383       .  S
