geometry optimzed in LAMMPS
_audit_creation_date              2020-11-30 
_audit_creation_method            'lammps2cif' 
_symmetry_space_group_name_H-M    'P1' 
_symmetry_Int_Tables_number       1 
_symmetry_cell_setting            triclinic 
loop_ 
_symmetry_equiv_pos_as_xyz 
  x,y,z 
_cell_length_a                    24.93644873 
_cell_length_b                    47.31107150538888 
_cell_length_c                    44.15592843725468 
_cell_angle_alpha                 90.70535331267189 
_cell_angle_beta                  90.69304808029783 
_cell_angle_gamma                 75.67456263223852 
loop_ 
_atom_site_label 
_atom_site_type_symbol 
_atom_site_fract_x 
_atom_site_fract_y 
_atom_site_fract_z 
_atom_site_charge 
N1          N  0.98622243  0.36731021  0.47114493    -0.02900
C2          C  0.98135450  0.39485247  0.98163719    -0.00300
C3          C  0.43660048  0.41342144  0.96736681    -0.23200
C4          C  0.41222090  0.39656180  0.94882854    -0.23400
C5          C  0.44352803  0.36832170  0.45160474    -0.00400
H6          H  0.41825111  0.43592193  0.97355896     0.13400
H7          H  0.37248453  0.40358440  0.93751091     0.13400
N8          N  0.04747383  0.12337942  0.52315587    -0.02900
C9          C  0.05093349  0.10738448  0.04875936    -0.00300
C10         C  0.10266199  0.10343202  0.06209635    -0.23200
C11         C  0.13205911  0.11780866  0.54461398    -0.23400
C12         C  0.09731504  0.12996571  0.52117041    -0.00400
H13         H  0.11802381  0.09042278  0.08181481     0.13400
H14         H  0.17424130  0.11925133  0.54848442     0.13400
O15         O  0.35323919  0.25786091  0.40612908    -0.81200
C16         C  0.19392023  0.20056409  0.44591184     0.98200
O17         O  0.21351648  0.21849609  0.46126497    -0.70300
O18         O  0.32194569  0.20258183  0.46295921    -0.73900
Al19       Al  0.27089384  0.23788255  0.45286345     1.49000
C20         C  0.36952840  0.19259873  0.45224688     0.93400
O21         O  0.33108962  0.18573884  0.37805276    -0.80100
O22         O  0.21714623  0.25966415  0.36749788    -0.73700
Al23       Al  0.33768830  0.22237280  0.39382935     1.90100
O24         O  0.24401149  0.20015585  0.36424918    -0.72700
O25         O  0.16219879  0.25821212  0.41815616    -0.72600
O26         O  0.19891831  0.19864220  0.41753225    -0.78300
O27         O  0.21962999  0.27435737  0.44757973    -0.76500
O28         O  0.27349665  0.22970742  0.41338188    -1.12600
O29         O  0.32708561  0.25907807  0.45319628    -0.71800
C30         C  0.35134691  0.26878068  0.43229528     0.98900
C31         C  0.29061857  0.18220276  0.36250330     0.95300
Al32       Al  0.21093046  0.22917980  0.39345902     1.55600
O33         O  0.38157440  0.20087030  0.42652652    -0.76400
C34         C  0.17190339  0.27691154  0.43668578     0.99500
C35         C  0.25931496  0.26001333  0.35219883     0.94400
O36         O  0.30613799  0.24294000  0.35795806    -0.81700
N37         N  0.30190767  0.34364995  0.23719728    -0.02900
C38         C  0.30729011  0.31650088  0.24874803    -0.00300
C39         C  0.35952780  0.29906470  0.24285827    -0.23200
C40         C  0.38848857  0.31610587  0.22883094    -0.23400
C41         C  0.35278416  0.34334463  0.22618298    -0.00400
H42         H  0.37712341  0.27745346  0.25165750     0.13400
H43         H  0.43193000  0.30985294  0.22310451     0.13400
N44         N  0.23476766  0.09555187  0.25089446    -0.02900
C45         C  0.22463381  0.11580698  0.27350450    -0.00300
C46         C  0.16847558  0.12834498  0.27549915    -0.23200
C47         C  0.14290800  0.11496051  0.25403214    -0.23400
C48         C  0.18423385  0.09468901  0.23946573    -0.00400
H49         H  0.14809917  0.14441457  0.29201159     0.13400
H50         H  0.09870213  0.11802343  0.25112034     0.13400
O51         O  0.09528451  0.99979805  0.15725146    -0.81200
C52         C  0.43737068  0.43871454  0.18581017     0.98200
O53         O  0.46197817  0.45080063  0.20544478    -0.70300
O54         O  0.06911289  0.43361200  0.20009738    -0.73900
Al55       Al  0.01960388  0.47093140  0.20122793     1.49000
C56         C  0.11348415  0.42584435  0.18559876     0.93400
O57         O  0.05594310  0.43747407  0.11467060    -0.80100
O58         O  0.45486771  0.01644408  0.12662453    -0.73700
Al59       Al  0.07265892  0.46894195  0.13764524     1.90100
O60         O  0.46921023  0.45995181  0.10706201    -0.72700
O61         O  0.40697072  0.00385877  0.17559580    -0.72600
O62         O  0.43331271  0.44651710  0.15854079    -0.78300
O63         O  0.47024485  0.00805020  0.20877729    -0.76500
O64         O  0.01317008  0.47364862  0.16095195    -1.12600
O65         O  0.07867540  0.99035877  0.20442012    -0.71800
C66         C  0.10015146  0.00385171  0.18529243     0.98900
C67         C  0.01127148  0.44025940  0.09987873     0.95300
Al68       Al  0.44658858  0.48106733  0.14352387     1.55600
O69         O  0.12100409  0.44004404  0.16261356    -0.76400
C70         C  0.42141948  0.01596669  0.19876707     0.99500
C71         C  0.99321825  0.01752098  0.10862350     0.94400
O72         O  0.03739057  0.99728828  0.10784343    -0.81700
C73         C  0.32610794  0.06086812  0.25788176    -0.11700
C74         C  0.28746498  0.07955173  0.23909260     0.05300
C75         C  0.29761331  0.07960879  0.20764966    -0.06900
C76         C  0.34274676  0.05920030  0.19537115    -0.07700
C77         C  0.37943863  0.03932392  0.21377018    -0.02200
C78         C  0.37203806  0.04075113  0.24543405     0.04600
N79         N  0.40782219  0.52018286  0.26486256     0.67100
H80         H  0.31857253  0.06055030  0.28194937     0.16000
H81         H  0.34923873  0.05870814  0.17111674     0.15700
N82         N  0.26215586  0.10014980  0.18791077     0.74800
O83         O  0.44083971  0.52851683  0.28270965    -0.38700
O84         O  0.40585766  0.49377715  0.26451492    -0.38600
O85         O  0.24367469  0.12630638  0.19636922    -0.39300
O86         O  0.25426934  0.09309797  0.16084795    -0.39400
C87         C  0.11071670  0.05431742  0.18503080    -0.11700
C88         C  0.12886034  0.02583260  0.19588681     0.05300
C89         C  0.17114667  0.01949364  0.21798954    -0.06900
C90         C  0.19297777  0.04193550  0.22986814    -0.07700
C91         C  0.17211819  0.07089408  0.22053588    -0.02200
C92         C  0.13134668  0.07692224  0.19740097     0.04600
N93         N  0.10836422  0.10609220  0.18736969     0.67100
H94         H  0.07826178  0.05932538  0.16792377     0.16000
H95         H  0.22345946  0.03700260  0.24798197     0.15700
N96         N  0.19160392  0.49043072  0.22893111     0.74800
O97         O  0.13573151  0.11795752  0.16987728    -0.38700
O98         O  0.05761069  0.11773303  0.19126328    -0.38600
O99         O  0.23568310  0.47451534  0.21826057    -0.39300
O100        O  0.16973202  0.48205640  0.25166743    -0.39400
C101        C  0.37592686  0.41934424  0.21847345    -0.11700
C102        C  0.41384842  0.41477171  0.19479938     0.05300
C103        C  0.42933443  0.38731550  0.18020642    -0.06900
C104        C  0.40638445  0.36484670  0.18986183    -0.07700
C105        C  0.36995367  0.36894259  0.21442885    -0.02200
C106        C  0.35416584  0.39666823  0.22860032     0.04600
N107        N  0.32016751  0.40157215  0.25488667     0.67100
H108        H  0.36447032  0.44043568  0.22976690     0.16000
H109        H  0.41890133  0.34363849  0.17892919     0.15700
N110        N  0.47086505  0.38135429  0.15709681     0.74800
O111        O  0.27687095  0.42213329  0.25513363    -0.38700
O112        O  0.34002071  0.39040528  0.27962229    -0.38600
O113        O  0.01565087  0.38892039  0.16096994    -0.39300
O114        O  0.46639507  0.36496890  0.13492594    -0.39400
C115        C  0.15796119  0.39336430  0.22788115    -0.11700
C116        C  0.15828343  0.40118314  0.19718987     0.05300
C117        C  0.20412135  0.38733120  0.17938038    -0.06900
C118        C  0.24951508  0.36797688  0.19301894    -0.07700
C119        C  0.25130537  0.36190743  0.22427684    -0.02200
C120        C  0.20374295  0.37412639  0.24156343     0.04600
N121        N  0.20203532  0.36894008  0.27329799     0.67100
H122        H  0.12313693  0.40360771  0.24198517     0.16000
H123        H  0.28412869  0.35749878  0.17891399     0.15700
N124        N  0.20526005  0.39234944  0.14743607     0.74800
O125        O  0.23107002  0.37997314  0.29126577    -0.38700
O126        O  0.16311779  0.35935210  0.28372425    -0.38600
O127        O  0.24862043  0.39615304  0.13545180    -0.39300
O128        O  0.16572191  0.38924268  0.13065567    -0.39400
C129        C  0.26971373  0.13556550  0.34927220    -0.11700
C130        C  0.29600591  0.15729010  0.34155952     0.05300
C131        C  0.31248387  0.15922337  0.31136323    -0.06900
C132        C  0.29549509  0.14208251  0.28869155    -0.07700
C133        C  0.26404495  0.12239024  0.29614199    -0.02200
C134        C  0.25484547  0.11764035  0.32695777     0.04600
N135        N  0.22412273  0.09715077  0.33539526     0.67100
H136        H  0.25683347  0.13402237  0.37245942     0.16000
H137        H  0.30247178  0.14606411  0.26509264     0.15700
N138        N  0.34171412  0.18042615  0.30318058     0.74800
O139        O  0.24350907  0.07028542  0.33027028    -0.38700
O140        O  0.17949376  0.10561010  0.34979316    -0.38600
O141        O  0.39141326  0.17723726  0.31152690    -0.39300
O142        O  0.31973163  0.20087303  0.28550004    -0.39400
C143        C  0.28771429  0.30119402  0.33044170    -0.11700
C144        C  0.25566849  0.28096244  0.32759165     0.05300
C145        C  0.23019404  0.27754460  0.29961952    -0.06900
C146        C  0.24341364  0.29160618  0.27390445    -0.07700
C147        C  0.27964133  0.31002612  0.27623848    -0.02200
C148        C  0.29993122  0.31584083  0.30521341     0.04600
N149        N  0.33700123  0.33443792  0.30927707     0.67100
H150        H  0.30705202  0.30392436  0.35206117     0.16000
H151        H  0.22773455  0.28698548  0.25188183     0.15700
N152        N  0.19376689  0.25856059  0.29677401     0.74800
O153        O  0.32676171  0.35406179  0.32952007    -0.38700
O154        O  0.38546715  0.32656731  0.29900564    -0.38600
O155        O  0.14732363  0.26526212  0.30960975    -0.39300
O156        O  0.20485966  0.23710948  0.27867414    -0.39400
C157        C  0.15749513  0.13472259  0.47881659    -0.11700
C158        C  0.11419751  0.14808221  0.49814194     0.05300
C159        C  0.09356652  0.17861707  0.49793620    -0.06900
C160        C  0.11907008  0.19529643  0.47963127    -0.07700
C161        C  0.16457566  0.18200898  0.46169702    -0.02200
C162        C  0.18291167  0.15135459  0.46042918     0.04600
N163        N  0.22918590  0.13692840  0.44221915     0.67100
H164        H  0.17343342  0.11118281  0.47919864     0.16000
H165        H  0.10467172  0.21896491  0.48031662     0.15700
N166        N  0.04933311  0.19300797  0.01737752     0.74800
O167        O  0.27353672  0.14525968  0.44304743    -0.38700
O168        O  0.22805013  0.11375753  0.42801912    -0.38600
O169        O  0.05307701  0.18895760  0.04560475    -0.39300
O170        O  0.00919488  0.21218527  0.00677933    -0.39400
C171        C  0.45829087  0.15381127  0.45611899    -0.11700
C172        C  0.41212167  0.17180083  0.47054399     0.05300
C173        C  0.40819207  0.17003308  0.50245173    -0.06900
C174        C  0.45122498  0.15189477  0.51906635    -0.07700
C175        C  0.49886388  0.13543862  0.50482072    -0.02200
C176        C  0.50111085  0.13523162  0.47278434     0.04600
N177        N  0.54620370  0.11615118  0.45697546     0.67100
H178        H  0.46087962  0.15409384  0.43165638     0.16000
H179        H  0.44933529  0.15238850  0.04356679     0.15700
N180        N  0.36306335  0.18819671  0.51873930     0.74800
O181        O  0.56950289  0.09148406  0.46767670    -0.38700
O182        O  0.06017671  0.12287944  0.43117655    -0.38600
O183        O  0.33223956  0.17668607  0.03441572    -0.39300
O184        O  0.35941509  0.21520846  0.52130029    -0.39400
C185        C  0.01903334  0.06264515  0.04352386    -0.11700
C186        C  0.01333677  0.08966160  0.05813913     0.05300
C187        C  0.48869680  0.09424347  0.08696235    -0.06900
C188        C  0.47552382  0.07093568  0.10195157    -0.07700
C189        C  0.98836804  0.04293397  0.08888939    -0.02200
C190        C  0.00700285  0.03918800  0.05873667     0.04600
N191        N  0.01729601  0.51113621  0.04420982     0.67100
H192        H  0.03835123  0.05888971  0.02148488     0.16000
H193        H  0.46115302  0.07401778  0.12511743     0.15700
N194        N  0.48297851  0.12142308  0.10267573     0.74800
O195        O  0.97816214  0.49899830  0.03961582    -0.38700
O196        O  0.06529424  0.49886406  0.03512162    -0.38600
O197        O  0.43536956  0.13781756  0.10687776    -0.39300
O198        O  0.52394087  0.12662871  0.11669439    -0.39400
C199        C  0.07947222  0.35200817  0.45068025    -0.11700
C200        C  0.03763785  0.34553606  0.46833978     0.05300
C201        C  0.04201809  0.31641928  0.47698680    -0.06900
C202        C  0.08585474  0.29428115  0.46573281    -0.07700
C203        C  0.12634340  0.30081495  0.44720743    -0.02200
C204        C  0.12412057  0.33001752  0.44038459     0.04600
N205        N  0.16488307  0.33742414  0.42153208     0.67100
H206        H  0.07516732  0.37416889  0.44300628     0.16000
H207        H  0.08905163  0.27170591  0.47185576     0.15700
N208        N  0.00212397  0.30919888  0.99680611     0.74800
O209        O  0.17352735  0.32650280  0.39527847    -0.38300
O210        O  0.18827178  0.35705184  0.42989191    -0.38600
O211        O  0.99265381  0.28418805  0.99564732    -0.39300
O212        O  0.97929187  0.32700896  0.01710633    -0.39400
C213        C  0.38125872  0.33775786  0.46570717    -0.11700
C214        C  0.42044320  0.34296025  0.44544566     0.05300
C215        C  0.43890355  0.32312471  0.42155250    -0.06900
C216        C  0.41695796  0.29862295  0.41810231    -0.07700
C217        C  0.37696060  0.29351741  0.43820344    -0.02200
C218        C  0.35990548  0.31322453  0.46256206     0.04600
N219        N  0.32039692  0.30896293  0.48411953     0.67100
H220        H  0.36792482  0.35266858  0.98454771     0.16000
H221        H  0.43065997  0.28375062  0.39930713     0.15700
N222        N  0.47907482  0.32777308  0.40049741     0.74800
O223        O  0.33691566  0.29394416  0.00747869    -0.38700
O224        O  0.27083011  0.32367130  0.48227598    -0.38600
O225        O  0.01988712  0.30715280  0.39355143    -0.39300
O226        O  0.47110425  0.35166038  0.38665707    -0.39400
C227        C  0.05346006  0.41349373  0.05329298    -0.11700
C228        C  0.00758431  0.42235291  0.07250751     0.05300
C229        C  0.45611082  0.41771563  0.06290180    -0.06900
C230        C  0.45054054  0.40670831  0.03394889    -0.07700
C231        C  0.99452230  0.40101580  0.01351002    -0.02200
C232        C  0.04715002  0.40324155  0.02367804     0.04600
N233        N  0.09342954  0.39722963  0.00376715     0.67100
H234        H  0.09324388  0.41684890  0.06029884     0.16000
H235        H  0.41025393  0.40415823  0.02673478     0.15700
N236        N  0.40805937  0.42543485  0.08158778     0.74800
O237        O  0.09354533  0.41344540  0.98130546    -0.38700
O238        O  0.13731086  0.37875287  0.01115641    -0.38600
O239        O  0.37604723  0.45058322  0.07936297    -0.39300
O240        O  0.39030118  0.40546404  0.09352122    -0.39400
N241        N  0.98619580  0.36730258  0.97115851    -0.02900
C242        C  0.98138002  0.39486245  0.48161588    -0.00300
C243        C  0.43656892  0.41342107  0.46738082    -0.23200
C244        C  0.41219036  0.39656690  0.44883532    -0.23400
C245        C  0.44356051  0.36831794  0.95160507    -0.00400
H246        H  0.41822147  0.43592043  0.47357817     0.13400
H247        H  0.37245546  0.40359331  0.43751692     0.13400
N248        N  0.04748141  0.12336260  0.02313602    -0.02900
C249        C  0.05091874  0.10740442  0.54878090    -0.00300
C250        C  0.10264094  0.10345745  0.56212430    -0.23200
C251        C  0.13207659  0.11778375  0.04458458    -0.23400
C252        C  0.09732455  0.12994610  0.02114623    -0.00400
H253        H  0.11799815  0.09045039  0.58184483     0.13400
H254        H  0.17426069  0.11922462  0.04845151     0.13400
O255        O  0.35324784  0.25786415  0.90614140    -0.81200
C256        C  0.19392288  0.20056601  0.94591158     0.98200
O257        O  0.21351797  0.21849622  0.96126897    -0.70300
O258        O  0.32194724  0.20258450  0.96296447    -0.73900
Al259      Al  0.27089478  0.23788585  0.95287206     1.49000
C260        C  0.36952881  0.19260047  0.95225120     0.93400
O261        O  0.33108086  0.18574833  0.87805686    -0.80100
O262        O  0.21714719  0.25968236  0.86751358    -0.73700
Al263      Al  0.33768757  0.22237989  0.89383700     1.90100
O264        O  0.24400804  0.20017412  0.86424704    -0.72700
O265        O  0.16219792  0.25821767  0.91816914    -0.72600
O266        O  0.19891982  0.19864950  0.91753158    -0.78300
O267        O  0.21962931  0.27436193  0.94759290    -0.76500
O268        O  0.27349697  0.22971507  0.91338989    -1.12600
O269        O  0.32708744  0.25908167  0.95320727    -0.71800
C270        C  0.35135963  0.26878128  0.93230875     0.98900
C271        C  0.29061196  0.18221793  0.86250186     0.95300
Al272      Al  0.21092999  0.22919188  0.89346564     1.55600
O273        O  0.38157363  0.20087254  0.92653097    -0.76400
C274        C  0.17190095  0.27691514  0.93670159     0.99500
C275        C  0.25931537  0.26003102  0.85221367     0.94400
O276        O  0.30613636  0.24295329  0.85796862    -0.81700
N277        N  0.30191849  0.34365603  0.73720561    -0.02900
C278        C  0.30730255  0.31650846  0.74876023    -0.00300
C279        C  0.35953893  0.29907121  0.74286989    -0.23200
C280        C  0.38849848  0.31611068  0.72883892    -0.23400
C281        C  0.35279400  0.34334926  0.72618893    -0.00400
H282        H  0.37713529  0.27746102  0.75167154     0.13400
H283        H  0.43193972  0.30985706  0.72311216     0.13400
N284        N  0.23476899  0.09554685  0.75090293    -0.02900
C285        C  0.22462989  0.11579653  0.77351869    -0.00300
C286        C  0.16846949  0.12832533  0.77552023    -0.23200
C287        C  0.14290529  0.11494111  0.75405169    -0.23400
C288        C  0.18423527  0.09467882  0.73947741    -0.00400
H289        H  0.14809090  0.14439137  0.79203543     0.13400
H290        H  0.09870006  0.11799944  0.75114152     0.13400
O291        O  0.09528977  0.99979859  0.65724189    -0.81200
C292        C  0.43737735  0.43871825  0.68581276     0.98200
O293        O  0.46198449  0.45080599  0.70544585    -0.70300
O294        O  0.06910741  0.43360176  0.70009582    -0.73900
Al295      Al  0.01959682  0.47092129  0.70122539     1.49000
C296        C  0.11348032  0.42583431  0.68559859     0.93400
O297        O  0.05594369  0.43746716  0.61466525    -0.80100
O298        O  0.45486983  0.01644066  0.62662406    -0.73700
Al299      Al  0.07266035  0.46893258  0.63764452     1.90100
O300        O  0.46920514  0.45995299  0.60706215    -0.72700
O301        O  0.40696213  0.00385320  0.67559153    -0.72600
O302        O  0.43331744  0.44651911  0.65854292    -0.78300
O303        O  0.47023258  0.00803887  0.70877726    -0.76500
O304        O  0.01316807  0.47364006  0.66094923    -1.12600
O305        O  0.07869010  0.99035757  0.70441148    -0.71800
C306        C  0.10016394  0.00385028  0.68528274     0.98900
C307        C  0.01127427  0.44025703  0.59987005     0.95300
Al308      Al  0.44658957  0.48106923  0.64352400     1.55600
O309        O  0.12100074  0.44003294  0.66261276    -0.76400
C310        C  0.42140871  0.01595815  0.69876554     0.99500
C311        C  0.99321359  0.01752347  0.60862037     0.94400
O312        O  0.03738491  0.99728999  0.60783691    -0.81700
C313        C  0.32611591  0.06086731  0.75788558    -0.11700
C314        C  0.28746739  0.07954999  0.73909837     0.05300
C315        C  0.29760614  0.07960376  0.70765417    -0.06900
C316        C  0.34273233  0.05919194  0.69537285    -0.07700
C317        C  0.37942847  0.03931569  0.71377026    -0.02200
C318        C  0.37203948  0.04074708  0.74543524     0.04600
N319        N  0.40781024  0.52016512  0.76485878     0.67100
H320        H  0.31858826  0.06055167  0.78195414     0.16000
H321        H  0.34921606  0.05869786  0.67111768     0.15700
N322        N  0.26214541  0.10014499  0.68791699     0.74800
O323        O  0.44085907  0.52848608  0.78269558    -0.38700
O324        O  0.40582025  0.49376324  0.76451006    -0.38600
O325        O  0.24367090  0.12630217  0.69637511    -0.39300
O326        O  0.25424555  0.09309200  0.66085621    -0.39400
C327        C  0.11070921  0.05431887  0.68503615    -0.11700
C328        C  0.12887525  0.02582978  0.69587682     0.05300
C329        C  0.17118176  0.01948539  0.71796779    -0.06900
C330        C  0.19300893  0.04192645  0.72985204    -0.07700
C331        C  0.17212659  0.07088880  0.72053671    -0.02200
C332        C  0.13133690  0.07692241  0.69741117     0.04600
N333        N  0.10833268  0.10609599  0.68739586     0.67100
H334        H  0.07823929  0.05933032  0.66793772     0.16000
H335        H  0.22350403  0.03698893  0.74795885     0.15700
N336        N  0.19158985  0.49042415  0.72894126     0.74800
O337        O  0.13571745  0.11799446  0.66994733    -0.38700
O338        O  0.05756455  0.11771600  0.69126698    -0.38600
O339        O  0.23569393  0.47451402  0.71829241    -0.39300
O340        O  0.16968578  0.48204796  0.75166479    -0.39400
C341        C  0.37592981  0.41934956  0.71847452    -0.11700
C342        C  0.41385853  0.41477527  0.69480403     0.05300
C343        C  0.42935596  0.38731699  0.68021642    -0.06900
C344        C  0.40640413  0.36484860  0.68987069    -0.07700
C345        C  0.36996431  0.36894648  0.71443380    -0.02200
C346        C  0.35417115  0.39667324  0.72860256     0.04600
N347        N  0.32017428  0.40157726  0.75488941     0.67100
H348        H  0.36446760  0.44044227  0.72976510     0.16000
H349        H  0.41892798  0.34363916  0.67894122     0.15700
N350        N  0.47090151  0.38135348  0.65711492     0.74800
O351        O  0.27687552  0.42213696  0.75513635    -0.38700
O352        O  0.34003001  0.39041160  0.77962510    -0.38600
O353        O  0.01561311  0.38891645  0.66093737    -0.39300
O354        O  0.46644613  0.36496577  0.63494364    -0.39400
C355        C  0.15796443  0.39336265  0.72788581    -0.11700
C356        C  0.15828236  0.40117575  0.69719260     0.05300
C357        C  0.20412085  0.38732296  0.67938391    -0.06900
C358        C  0.24952028  0.36797480  0.69302503    -0.07700
C359        C  0.25131421  0.36191102  0.72428429    -0.02200
C360        C  0.20375095  0.37413021  0.74157063     0.04600
N361        N  0.20204640  0.36894967  0.77330682     0.67100
H362        H  0.12313983  0.40360720  0.74198906     0.16000
H363        H  0.28413454  0.35749603  0.67892084     0.15700
N364        N  0.20525312  0.39233324  0.64743766     0.74800
O365        O  0.23111779  0.37996517  0.79126879    -0.38700
O366        O  0.16311166  0.35938086  0.78374103    -0.38600
O367        O  0.24861256  0.39613104  0.63544710    -0.39300
O368        O  0.16570904  0.38922522  0.63066261    -0.39400
C369        C  0.26974983  0.13556859  0.84927450    -0.11700
C370        C  0.29599986  0.15730787  0.84155364     0.05300
C371        C  0.31243135  0.15925526  0.81135045    -0.06900
C372        C  0.29544632  0.14210636  0.78868503    -0.07700
C373        C  0.26404347  0.12239484  0.79614572    -0.02200
C374        C  0.25488101  0.11763880  0.82696476     0.04600
N375        N  0.22419155  0.09713735  0.83541222     0.67100
H376        H  0.25689942  0.13401688  0.87246659     0.16000
H377        H  0.30239037  0.14609372  0.76508297     0.15700
N378        N  0.34161389  0.18047649  0.80315732     0.74800
O379        O  0.24361826  0.07027205  0.83030538    -0.38700
O380        O  0.17955590  0.10558751  0.84980592    -0.38600
O381        O  0.39124859  0.17736838  0.81158899    -0.39300
O382        O  0.31966919  0.20085660  0.78539206    -0.39400
C383        C  0.28773646  0.30120470  0.83045586    -0.11700
C384        C  0.25567015  0.28098250  0.82760879     0.05300
C385        C  0.23018206  0.27757129  0.79963867    -0.06900
C386        C  0.24340958  0.29162833  0.77392219    -0.07700
C387        C  0.27965663  0.31003773  0.77625317    -0.02200
C388        C  0.29996019  0.31584731  0.80522630     0.04600
N389        N  0.33704786  0.33443533  0.80928661     0.67100
H390        H  0.30708468  0.30392990  0.85207357     0.16000
H391        H  0.22771876  0.28701308  0.75190071     0.15700
N392        N  0.19373324  0.25859798  0.79679636     0.74800
O393        O  0.32682024  0.35406286  0.82952608    -0.38700
O394        O  0.38551416  0.32655282  0.79901758    -0.38600
O395        O  0.14734143  0.26527940  0.80968773    -0.39300
O396        O  0.20474586  0.23718157  0.77865038    -0.39400
C397        C  0.15748719  0.13471493  0.97878854    -0.11700
C398        C  0.11419936  0.14806911  0.99812186     0.05300
C399        C  0.09357774  0.17860473  0.99793116    -0.06900
C400        C  0.11908307  0.19528919  0.97963411    -0.07700
C401        C  0.16457990  0.18200674  0.96169169    -0.02200
C402        C  0.18290472  0.15135187  0.96040778     0.04600
N403        N  0.22916801  0.13692929  0.94218793     0.67100
H404        H  0.17341893  0.11117373  0.97915958     0.16000
H405        H  0.10469080  0.21895953  0.98033167     0.15700
N406        N  0.04931321  0.19302629  0.51737465     0.74800
O407        O  0.27351677  0.14526277  0.94300641    -0.38700
O408        O  0.22802758  0.11375826  0.92798937    -0.38600
O409        O  0.05303910  0.18897883  0.54560263    -0.39300
O410        O  0.00918639  0.21220579  0.50676927    -0.39400
C411        C  0.45831071  0.15382588  0.95612575    -0.11700
C412        C  0.41212282  0.17180207  0.97054785     0.05300
C413        C  0.40817847  0.17002355  0.00245359    -0.06900
C414        C  0.45121350  0.15188961  0.01907015    -0.07700
C415        C  0.49886986  0.13544722  0.00482870    -0.02200
C416        C  0.50113358  0.13524996  0.97279280     0.04600
N417        N  0.54624731  0.11618407  0.95698578     0.67100
H418        H  0.46091336  0.15411655  0.93166410     0.16000
H419        H  0.44936164  0.15240059  0.54356349     0.15700
N420        N  0.36302951  0.18817242  0.01873851     0.74800
O421        O  0.56955514  0.09151464  0.96767879    -0.38700
O422        O  0.06016832  0.12286568  0.93115512    -0.38600
O423        O  0.33230841  0.17672451  0.53445782    -0.39300
O424        O  0.35938644  0.21518087  0.02133728    -0.39400
C425        C  0.01903406  0.06266082  0.54353290    -0.11700
C426        C  0.01332787  0.08967542  0.55815357     0.05300
C427        C  0.48871465  0.09423543  0.58695487    -0.06900
C428        C  0.47553835  0.07093049  0.60194796    -0.07700
C429        C  0.98836211  0.04293979  0.58889060    -0.02200
C430        C  0.00700258  0.03919969  0.55873854     0.04600
N431        N  0.01731666  0.51112431  0.54421212     0.67100
H432        H  0.03835547  0.05891086  0.52149459     0.16000
H433        H  0.46117303  0.07401509  0.62511471     0.15700
N434        N  0.48300878  0.12141534  0.60266615     0.74800
O435        O  0.97816982  0.49900570  0.53957209    -0.38700
O436        O  0.06533698  0.49883300  0.53517048    -0.38600
O437        O  0.43540209  0.13780466  0.60688871    -0.39300
O438        O  0.52398749  0.12662548  0.61666444    -0.39400
C439        C  0.07946720  0.35200546  0.95072084    -0.11700
C440        C  0.03760953  0.34552627  0.96835582     0.05300
C441        C  0.04197581  0.31640441  0.97698192    -0.06900
C442        C  0.08582122  0.29427124  0.96572793    -0.07700
C443        C  0.12633674  0.30081369  0.94722904    -0.02200
C444        C  0.12412962  0.33001998  0.94043342     0.04600
N445        N  0.16492554  0.33743580  0.92161452     0.67100
H446        H  0.07517497  0.37417011  0.94305952     0.16000
H447        H  0.08900489  0.27169045  0.97183179     0.15700
N448        N  0.00218793  0.30922295  0.49683250     0.74800
O449        O  0.17352307  0.32658098  0.89533113    -0.38300
O450        O  0.18839535  0.35701086  0.93003991    -0.38600
O451        O  0.99271532  0.28421225  0.49569398    -0.39300
O452        O  0.97937804  0.32704231  0.51713031    -0.39400
C453        C  0.38133148  0.33774026  0.96573495    -0.11700
C454        C  0.42047901  0.34295376  0.94545598     0.05300
C455        C  0.43890623  0.32312763  0.92155145    -0.06900
C456        C  0.41695721  0.29862720  0.91810330    -0.07700
C457        C  0.37699084  0.29351184  0.93821971    -0.02200
C458        C  0.35997949  0.31320575  0.96259432     0.04600
N459        N  0.32052436  0.30892712  0.98417591     0.67100
H460        H  0.36782154  0.35269479  0.48450953     0.16000
H461        H  0.43063110  0.28376444  0.89929715     0.15700
N462        N  0.47904787  0.32778439  0.90048274     0.74800
O463        O  0.33673546  0.29402749  0.50745913    -0.38700
O464        O  0.27096940  0.32366370  0.98239670    -0.38600
O465        O  0.01989574  0.30713666  0.89356497    -0.39300
O466        O  0.47102676  0.35166450  0.88662502    -0.39400
C467        C  0.05346962  0.41349913  0.55328007    -0.11700
C468        C  0.00758952  0.42235781  0.57249238     0.05300
C469        C  0.45609740  0.41770890  0.56291360    -0.06900
C470        C  0.45052071  0.40669967  0.53396218    -0.07700
C471        C  0.99453687  0.40103087  0.51348891    -0.02200
C472        C  0.04716434  0.40325111  0.52366245     0.04600
N473        N  0.09344999  0.39723386  0.50375540     0.67100
H474        H  0.09325434  0.41684958  0.56029094     0.16000
H475        H  0.41023193  0.40415063  0.52675090     0.15700
N476        N  0.40805057  0.42543084  0.58160273     0.74800
O477        O  0.09357162  0.41344087  0.48128704    -0.38700
O478        O  0.13732285  0.37875140  0.51114595    -0.38600
O479        O  0.37602666  0.45057516  0.57936866    -0.39300
O480        O  0.39031251  0.40546271  0.59355598    -0.39400
N481        N  0.98610604  0.86727174  0.47118402    -0.02900
C482        C  0.98136044  0.89481199  0.98168309    -0.00300
C483        C  0.43649351  0.91341185  0.96748331    -0.23200
C484        C  0.41205562  0.89659453  0.94892537    -0.23400
C485        C  0.44338860  0.86834048  0.45164167    -0.00400
H486        H  0.41818832  0.93590735  0.97371282     0.13400
H487        H  0.37230788  0.90365073  0.93762638     0.13400
N488        N  0.04742365  0.62328482  0.52304407    -0.02900
C489        C  0.05089390  0.60729679  0.04866450    -0.00300
C490        C  0.10267331  0.60327526  0.06195496    -0.23200
C491        C  0.13211753  0.61758873  0.54440274    -0.23400
C492        C  0.09731031  0.62981034  0.52100904    -0.00400
H493        H  0.11804866  0.59023977  0.08165438     0.13400
H494        H  0.17433754  0.61898412  0.54823315     0.13400
O495        O  0.35310346  0.75789501  0.40613074    -0.81200
C496        C  0.19390241  0.70050866  0.44587446     0.98200
O497        O  0.21345866  0.71844924  0.46123959    -0.70300
O498        O  0.32189398  0.70258445  0.46295149    -0.73900
Al499      Al  0.27079646  0.73787089  0.45285382     1.49000
C500        C  0.36948268  0.69262028  0.45223870     0.93400
O501        O  0.33108489  0.68575372  0.37805218    -0.80100
O502        O  0.21705655  0.75965431  0.36749076    -0.73700
Al503      Al  0.33761942  0.72239566  0.39382645     1.90100
O504        O  0.24401464  0.70014382  0.36422477    -0.72700
O505        O  0.16209880  0.75816411  0.41813761    -0.72600
O506        O  0.19891148  0.69859958  0.41749539    -0.78300
O507        O  0.21948800  0.77433189  0.44756953    -0.76500
O508        O  0.27342454  0.72970226  0.41337165    -1.12600
O509        O  0.32694404  0.75909614  0.45319556    -0.71800
C510        C  0.35119878  0.76881002  0.43229925     0.98900
C511        C  0.29063735  0.68220194  0.36249420     0.95300
Al512      Al  0.21087954  0.72915354  0.39343795     1.55600
O513        O  0.38152120  0.70090571  0.42652358    -0.76400
C514        C  0.17176943  0.77686975  0.43667031     0.99500
C515        C  0.25922080  0.76001931  0.35219535     0.94400
O516        O  0.30605425  0.74295468  0.35795261    -0.81700
N517        N  0.30189848  0.84367923  0.23723847    -0.02900
C518        C  0.30726903  0.81653307  0.24879531    -0.00300
C519        C  0.35951871  0.79909779  0.24293317    -0.23200
C520        C  0.38849734  0.81613555  0.22891601    -0.23400
C521        C  0.35279236  0.84337187  0.22624477    -0.00400
H522        H  0.37710337  0.77748955  0.25174276     0.13400
H523        H  0.43194761  0.80988152  0.22320905     0.13400
N524        N  0.23484560  0.59551081  0.25093779    -0.02900
C525        C  0.22472991  0.61576828  0.27354305    -0.00300
C526        C  0.16857264  0.62830364  0.27555174    -0.23200
C527        C  0.14299007  0.61491540  0.25409360    -0.23400
C528        C  0.18430779  0.59464571  0.23951979    -0.00400
H529        H  0.14820862  0.64437436  0.29206641     0.13400
H530        H  0.09878319  0.61797468  0.25119311     0.13400
O531        O  0.09534029  0.49978254  0.15725870    -0.81200
C532        C  0.43733773  0.93873840  0.18581093     0.98200
O533        O  0.46195255  0.95082559  0.20543994    -0.70300
O534        O  0.06908916  0.93363341  0.20011210    -0.73900
Al535      Al  0.01954400  0.97094810  0.20122139     1.49000
C536        C  0.11347223  0.92587256  0.18562182     0.93400
O537        O  0.05597102  0.93745575  0.11469123    -0.80100
O538        O  0.45485993  0.51644039  0.12666120    -0.73700
Al539      Al  0.07264629  0.96894181  0.13764864     1.90100
O540        O  0.46921403  0.95993808  0.10705712    -0.72700
O541        O  0.40700134  0.50382751  0.17563044    -0.72600
O542        O  0.43327275  0.94653683  0.15853965    -0.78300
O543        O  0.47030201  0.50802194  0.20879478    -0.76500
O544        O  0.01313795  0.97365059  0.16094299    -1.12600
O545        O  0.07876491  0.49032328  0.20442514    -0.71800
C546        C  0.10023544  0.50382199  0.18530033     0.98900
C547        C  0.01131103  0.94022256  0.09989322     0.95300
Al548      Al  0.44657223  0.98107877  0.14350432     1.55600
O549        O  0.12098767  0.94006976  0.16263576    -0.76400
C550        C  0.42146931  0.51593611  0.19879575     0.99500
C551        C  0.99319315  0.51753767  0.10865240     0.94400
O552        O  0.03737910  0.49731234  0.10786443    -0.81700
C553        C  0.32616204  0.56081182  0.25791852    -0.11700
C554        C  0.28753577  0.57950992  0.23913396     0.05300
C555        C  0.29769572  0.57958708  0.20769431    -0.06900
C556        C  0.34282923  0.55918226  0.19541168    -0.07700
C557        C  0.37950230  0.53929097  0.21380504    -0.02200
C558        C  0.37208938  0.54069817  0.24546723     0.04600
N559        N  0.40778984  0.02025324  0.26483766     0.67100
H560        H  0.31861476  0.56048113  0.28198365     0.16000
H561        H  0.34933426  0.55870245  0.17115879     0.15700
N562        N  0.26224953  0.60014259  0.18796335     0.74800
O563        O  0.44081049  0.02860487  0.28266823    -0.38700
O564        O  0.40585018  0.99384382  0.26450800    -0.38600
O565        O  0.24373326  0.62628920  0.19644603    -0.39300
O566        O  0.25441200  0.59311653  0.16088599    -0.39400
C567        C  0.11090388  0.55427347  0.18501940    -0.11700
C568        C  0.12896911  0.52579301  0.19590148     0.05300
C569        C  0.17116680  0.51945696  0.21805537    -0.06900
C570        C  0.19298103  0.54189546  0.22995692    -0.07700
C571        C  0.17219202  0.57084901  0.22059573    -0.02200
C572        C  0.13151204  0.57687551  0.19741553     0.04600
N573        N  0.10859586  0.60604268  0.18736226     0.67100
H574        H  0.07850912  0.55928411  0.16787911     0.16000
H575        H  0.22340036  0.53696547  0.24810198     0.15700
N576        N  0.19165485  0.99046208  0.22883883     0.74800
O577        O  0.13580889  0.61777273  0.16964407    -0.38700
O578        O  0.05792650  0.61777450  0.19142012    -0.38600
O579        O  0.23585318  0.97461388  0.21822694    -0.39300
O580        O  0.16969496  0.98201717  0.25150234    -0.39400
C581        C  0.37586401  0.91938190  0.21846649    -0.11700
C582        C  0.41382786  0.91479437  0.19481173     0.05300
C583        C  0.42939250  0.88731812  0.18026362    -0.06900
C584        C  0.40645552  0.86484984  0.18993570    -0.07700
C585        C  0.36997537  0.86896345  0.21448161    -0.02200
C586        C  0.35413043  0.89670420  0.22861717     0.04600
N587        N  0.32010161  0.90162379  0.25489267     0.67100
H588        H  0.36436166  0.94048649  0.22973095     0.16000
H589        H  0.41901870  0.84362920  0.17903313     0.15700
N590        N  0.47098640  0.88133785  0.15718671     0.74800
O591        O  0.27683865  0.92220617  0.25513558    -0.38700
O592        O  0.33988182  0.89041883  0.27962588    -0.38600
O593        O  0.01567787  0.88894326  0.16103390    -0.39300
O594        O  0.46665363  0.86486989  0.13506494    -0.39400
C595        C  0.15793022  0.89337477  0.22789724    -0.11700
C596        C  0.15828848  0.90122047  0.19721648     0.05300
C597        C  0.20417740  0.88740608  0.17942351    -0.06900
C598        C  0.24955646  0.86804440  0.19306345    -0.07700
C599        C  0.25130543  0.86194394  0.22431303    -0.02200
C600        C  0.20371254  0.87414208  0.24158605     0.04600
N601        N  0.20197765  0.86894980  0.27331750     0.67100
H602        H  0.12307651  0.90359580  0.24199115     0.16000
H603        H  0.28419537  0.85758974  0.17896480     0.15700
N604        N  0.20539903  0.89248051  0.14749486     0.74800
O605        O  0.23094550  0.88001185  0.29129862    -0.38700
O606        O  0.16306940  0.85934210  0.28372486    -0.38600
O607        O  0.24873933  0.89639186  0.13558392    -0.39300
O608        O  0.16597443  0.88932716  0.13065184    -0.39400
C609        C  0.26985988  0.63553017  0.34928540    -0.11700
C610        C  0.29607346  0.65728201  0.34156044     0.05300
C611        C  0.31253993  0.65921735  0.31136408    -0.06900
C612        C  0.29557370  0.64206508  0.28869837    -0.07700
C613        C  0.26416765  0.62235481  0.29615999    -0.02200
C614        C  0.25502865  0.61758789  0.32697828     0.04600
N615        N  0.22439511  0.59706224  0.33542594     0.67100
H616        H  0.25700543  0.63397758  0.37247809     0.16000
H617        H  0.30251874  0.64605626  0.26509629     0.15700
N618        N  0.34172890  0.68043397  0.30317578     0.74800
O619        O  0.24397656  0.57019132  0.33042355    -0.38700
O620        O  0.17969145  0.60549844  0.34976088    -0.38600
O621        O  0.39160728  0.67710127  0.31123889    -0.39300
O622        O  0.31947801  0.70105486  0.28575664    -0.39400
C623        C  0.28758158  0.80122270  0.33047099    -0.11700
C624        C  0.25556129  0.78098097  0.32759987     0.05300
C625        C  0.23011939  0.77756389  0.29961736    -0.06900
C626        C  0.24336130  0.79163253  0.27391279    -0.07700
C627        C  0.27957316  0.81005958  0.27626855    -0.02200
C628        C  0.29981707  0.81587686  0.30525358     0.04600
N629        N  0.33687202  0.83447903  0.30933783     0.67100
H630        H  0.30689269  0.80395306  0.35209850     0.16000
H631        H  0.22771384  0.78701191  0.25188215     0.15700
N632        N  0.19369574  0.75857925  0.29675260     0.74800
O633        O  0.32657777  0.85411428  0.32956772    -0.38700
O634        O  0.38536682  0.82660201  0.29910691    -0.38600
O635        O  0.14724262  0.76527799  0.30957791    -0.39300
O636        O  0.20477809  0.73714922  0.27862572    -0.39400
C637        C  0.15738927  0.63462361  0.47863170    -0.11700
C638        C  0.11415655  0.64796184  0.49800516     0.05300
C639        C  0.09359810  0.67850240  0.49788579    -0.06900
C640        C  0.11911859  0.69520419  0.47961900    -0.07700
C641        C  0.16457083  0.68193399  0.46163934    -0.02200
C642        C  0.18282917  0.65127771  0.46028406     0.04600
N643        N  0.22905115  0.63686426  0.44202859     0.67100
H644        H  0.17327005  0.61107952  0.47895083     0.16000
H645        H  0.10477619  0.71887162  0.48036782     0.15700
N646        N  0.04928859  0.69289772  0.01729707     0.74800
O647        O  0.27339654  0.64520198  0.44281262    -0.38700
O648        O  0.22789396  0.61368931  0.42784175    -0.38600
O649        O  0.05291501  0.68874523  0.04550964    -0.39300
O650        O  0.00925945  0.71215873  0.00672557    -0.39400
C651        C  0.45817792  0.65378462  0.45607887    -0.11700
C652        C  0.41208607  0.67181995  0.47052451     0.05300
C653        C  0.40822499  0.67008339  0.50243811    -0.06900
C654        C  0.45124131  0.65191270  0.51903632    -0.07700
C655        C  0.49880146  0.63540002  0.50476575    -0.02200
C656        C  0.50098284  0.63517806  0.47272813     0.04600
N657        N  0.54599539  0.61605367  0.45690277     0.67100
H658        H  0.46071131  0.65404836  0.43161308     0.16000
H659        H  0.44944508  0.65242259  0.04352076     0.15700
N660        N  0.36319478  0.68831132  0.51874209     0.74800
O661        O  0.56919633  0.59136694  0.46759192    -0.38700
O662        O  0.05991916  0.62274918  0.43107036    -0.38600
O663        O  0.33246647  0.67689803  0.03453829    -0.39300
O664        O  0.35963040  0.71532051  0.52122914    -0.39400
C665        C  0.01883555  0.56260657  0.04347677    -0.11700
C666        C  0.01323162  0.58962511  0.05807392     0.05300
C667        C  0.48870471  0.59420646  0.08688900    -0.06900
C668        C  0.47553327  0.57092543  0.10192836    -0.07700
C669        C  0.98828228  0.54293749  0.08889625    -0.02200
C670        C  0.00680614  0.53916805  0.05872453     0.04600
N671        N  0.01760796  0.01116178  0.04420802     0.67100
H672        H  0.03808646  0.55883326  0.02142136     0.16000
H673        H  0.46125785  0.57403055  0.12511064     0.15700
N674        N  0.48311109  0.62139196  0.10257445     0.74800
O675        O  0.97846304  0.99908594  0.03936812    -0.38700
O676        O  0.06572217  0.99884941  0.03532163    -0.38600
O677        O  0.43553740  0.63778805  0.10687552    -0.39300
O678        O  0.52418312  0.62660343  0.11647729    -0.39400
C679        C  0.07936810  0.85195950  0.45073249    -0.11700
C680        C  0.03749047  0.84547682  0.46834940     0.05300
C681        C  0.04181803  0.81634823  0.47693902    -0.06900
C682        C  0.08564565  0.79421337  0.46566764    -0.07700
C683        C  0.12618484  0.80076218  0.44719041    -0.02200
C684        C  0.12401051  0.82997096  0.44042990     0.04600
N685        N  0.16482436  0.83738746  0.42162797     0.67100
H686        H  0.07511766  0.87412995  0.44310597     0.16000
H687        H  0.08880551  0.77163311  0.47174718     0.15700
N688        N  0.00202158  0.80915031  0.99678104     0.74800
O689        O  0.17322621  0.82666063  0.39528260    -0.38300
O690        O  0.18851727  0.85684370  0.43014560    -0.38600
O691        O  0.99252266  0.78414637  0.99561246    -0.39300
O692        O  0.97924898  0.82694814  0.01710553    -0.39400
C693        C  0.38117103  0.83775433  0.46576673    -0.11700
C694        C  0.42026026  0.84299846  0.44546802     0.05300
C695        C  0.43861947  0.82321042  0.42152596    -0.06900
C696        C  0.41668647  0.79870729  0.41806739    -0.07700
C697        C  0.37679920  0.79355101  0.43821279    -0.02200
C698        C  0.35983879  0.81321354  0.46261920     0.04600
N699        N  0.32048378  0.80888684  0.48423787     0.67100
H700        H  0.36773411  0.85266509  0.98458490     0.16000
H701        H  0.43031745  0.78387299  0.39923361     0.15700
N702        N  0.47867971  0.82790994  0.40043082     0.74800
O703        O  0.33684053  0.79384947  0.00744487    -0.38700
O704        O  0.27094742  0.82366981  0.48257962    -0.38600
O705        O  0.01962020  0.80727369  0.39352842    -0.39300
O706        O  0.47050531  0.85177841  0.38653969    -0.39400
C707        C  0.05350957  0.91347027  0.05330533    -0.11700
C708        C  0.00765429  0.92228866  0.07254097     0.05300
C709        C  0.45614264  0.91759949  0.06299816    -0.06900
C710        C  0.45054586  0.90657640  0.03405510    -0.07700
C711        C  0.99457273  0.90093740  0.01355671    -0.02200
C712        C  0.04718606  0.90320948  0.02369618     0.04600
N713        N  0.09343085  0.89722985  0.00376237     0.67100
H714        H  0.09327420  0.91686693  0.06028855     0.16000
H715        H  0.41026445  0.90399927  0.02686569     0.15700
N716        N  0.40812792  0.92529272  0.08171375     0.74800
O717        O  0.09352556  0.91348986  0.98133527    -0.38700
O718        O  0.13729788  0.87871201  0.01108997    -0.38600
O719        O  0.37604120  0.95042056  0.07948378    -0.39300
O720        O  0.39047157  0.90530692  0.09368776    -0.39400
N721        N  0.98613753  0.86727522  0.97118319    -0.02900
C722        C  0.98132846  0.89480633  0.48169106    -0.00300
C723        C  0.43652094  0.91341950  0.46745474    -0.23200
C724        C  0.41208230  0.89659520  0.44890566    -0.23400
C725        C  0.44335963  0.86833824  0.95165224    -0.00400
H726        H  0.41821313  0.93591643  0.47367763     0.13400
H727        H  0.37233287  0.90364661  0.43760744     0.13400
N728        N  0.04742209  0.62329568  0.02305585    -0.02900
C729        C  0.05090634  0.60728408  0.54865172    -0.00300
C730        C  0.10269426  0.60325843  0.56193314    -0.23200
C731        C  0.13210358  0.61760525  0.04442912    -0.23400
C732        C  0.09730867  0.62982390  0.02102913    -0.00400
H733        H  0.11807843  0.59022115  0.58163011     0.13400
H734        H  0.17432179  0.61900105  0.04826575     0.13400
O735        O  0.35309403  0.75789077  0.90611512    -0.81200
C736        C  0.19389991  0.70050564  0.94587054     0.98200
O737        O  0.21345766  0.71844688  0.96123265    -0.70300
O738        O  0.32189238  0.70257555  0.96293870    -0.73900
Al739      Al  0.27079841  0.73786362  0.95284233     1.49000
C740        C  0.36948208  0.69261312  0.95222645     0.93400
O741        O  0.33108431  0.68574515  0.87804218    -0.80100
O742        O  0.21705084  0.75964032  0.86747449    -0.73700
Al743      Al  0.33761619  0.72238830  0.89381374     1.90100
O744        O  0.24400839  0.70012971  0.86422206    -0.72700
O745        O  0.16210017  0.75816040  0.91812614    -0.72600
O746        O  0.19890651  0.69859349  0.91749175    -0.78300
O747        O  0.21949477  0.77432517  0.94755776    -0.76500
O748        O  0.27342217  0.72969438  0.91336014    -1.12600
O749        O  0.32694880  0.75908564  0.95318217    -0.71800
C750        C  0.35119009  0.76880495  0.93228406     0.98900
C751        C  0.29063208  0.68218890  0.86249102     0.95300
Al752      Al  0.21087544  0.72914425  0.89342911     1.55600
O753        O  0.38152112  0.70090083  0.92651226    -0.76400
C754        C  0.17177605  0.77686579  0.93665777     0.99500
C755        C  0.25921471  0.76000454  0.85217848     0.94400
O756        O  0.30604952  0.74294296  0.85793850    -0.81700
N757        N  0.30188557  0.84366745  0.73722213    -0.02900
C758        C  0.30725808  0.81652079  0.74877812    -0.00300
C759        C  0.35951042  0.79908761  0.74291758    -0.23200
C760        C  0.38848712  0.81612700  0.72890120    -0.23400
C761        C  0.35277900  0.84336233  0.72622954    -0.00400
H762        H  0.37709704  0.77747951  0.75172698     0.13400
H763        H  0.43193763  0.80987475  0.72319454     0.13400
N764        N  0.23484672  0.59550116  0.75093507    -0.02900
C765        C  0.22472760  0.61575746  0.77354093    -0.00300
C766        C  0.16857013  0.62829509  0.77554427    -0.23200
C767        C  0.14299192  0.61490890  0.75408211    -0.23400
C768        C  0.18431205  0.59463811  0.73951126    -0.00400
H769        H  0.14820232  0.64436454  0.79205905     0.13400
H770        H  0.09878552  0.61796898  0.75117834     0.13400
O771        O  0.09534284  0.49977098  0.65726094    -0.81200
C772        C  0.43732471  0.93873030  0.68579991     0.98200
O773        O  0.46194141  0.95081375  0.70543151    -0.70300
O774        O  0.06909201  0.93363506  0.70010510    -0.73900
Al775      Al  0.01955360  0.97095081  0.70121681     1.49000
C776        C  0.11347238  0.92587241  0.68561278     0.93400
O777        O  0.05596399  0.93745657  0.61468777    -0.80100
O778        O  0.45485769  0.51644185  0.62665993    -0.73700
Al779      Al  0.07264527  0.96894281  0.63764145     1.90100
O780        O  0.46921453  0.95993685  0.60705068    -0.72700
O781        O  0.40700862  0.50382968  0.67563157    -0.72600
O782        O  0.43326195  0.94653226  0.65852972    -0.78300
O783        O  0.47031546  0.50802546  0.70879206    -0.76500
O784        O  0.01314102  0.97365285  0.66093879    -1.12600
O785        O  0.07875680  0.49031397  0.70442642    -0.71800
C786        C  0.10023193  0.50381170  0.68530271     0.98900
C787        C  0.01130094  0.94022171  0.59989332     0.95300
Al788      Al  0.44656825  0.98107461  0.64349942     1.55600
O789        O  0.12098864  0.94007000  0.66262711    -0.76400
C790        C  0.42148114  0.51593891  0.69879514     0.99500
C791        C  0.99320303  0.51753106  0.60865157     0.94400
O792        O  0.03738723  0.49730472  0.60786471    -0.81700
C793        C  0.32615585  0.56079755  0.75791789    -0.11700
C794        C  0.28753947  0.57950221  0.73913413     0.05300
C795        C  0.29771325  0.57959034  0.70769686    -0.06900
C796        C  0.34285262  0.55918994  0.69541400    -0.07700
C797        C  0.37951623  0.53929252  0.71380578    -0.02200
C798        C  0.37208855  0.54068846  0.74546663     0.04600
N799        N  0.40779658  0.02025080  0.76483835     0.67100
H800        H  0.31859702  0.56045876  0.78198120     0.16000
H801        H  0.34936833  0.55871737  0.67116228     0.15700
N802        N  0.26227465  0.60015208  0.68796861     0.74800
O803        O  0.44079058  0.02860827  0.78268192    -0.38700
O804        O  0.40587397  0.99383881  0.76450300    -0.38600
O805        O  0.24375602  0.62629626  0.69645872    -0.39300
O806        O  0.25444782  0.59313445  0.66088716    -0.39400
C807        C  0.11090923  0.55426169  0.68501543    -0.11700
C808        C  0.12896468  0.52578318  0.69590427     0.05300
C809        C  0.17115895  0.51944880  0.71806019    -0.06900
C810        C  0.19297921  0.54188722  0.72995682    -0.07700
C811        C  0.17219827  0.57083943  0.72058946    -0.02200
C812        C  0.13152265  0.57686380  0.69740704     0.04600
N813        N  0.10861672  0.60602935  0.68734647     0.67100
H814        H  0.07851865  0.55927103  0.66787272     0.16000
H815        H  0.22339540  0.53695883  0.74810354     0.15700
N816        N  0.19171035  0.99044958  0.72880191     0.74800
O817        O  0.13583038  0.61774840  0.66961781    -0.38700
O818        O  0.05795120  0.61776852  0.69140727    -0.38600
O819        O  0.23591813  0.97461504  0.71818572    -0.39300
O820        O  0.16975902  0.98198776  0.75145876    -0.39400
C821        C  0.37585292  0.91937215  0.71845517    -0.11700
C822        C  0.41380924  0.91478675  0.69479677     0.05300
C823        C  0.42936152  0.88731300  0.68024235    -0.06900
C824        C  0.40642729  0.86484395  0.68991555    -0.07700
C825        C  0.36995753  0.86895507  0.71446596    -0.02200
C826        C  0.35411742  0.89669460  0.72860437     0.04600
N827        N  0.32008852  0.90161361  0.75487985     0.67100
H828        H  0.36435692  0.94047518  0.72972315     0.16000
H829        H  0.41898377  0.84362458  0.67900971     0.15700
N830        N  0.47093912  0.88133571  0.65715662     0.74800
O831        O  0.27682635  0.92219654  0.75512296    -0.38700
O832        O  0.33986906  0.89040882  0.77961303    -0.38600
O833        O  0.01571073  0.88893983  0.66106044    -0.39300
O834        O  0.46658877  0.86487212  0.63503395    -0.39400
C835        C  0.15792398  0.89336882  0.72788457    -0.11700
C836        C  0.15828398  0.90121712  0.69720470     0.05300
C837        C  0.20416934  0.88740085  0.67941020    -0.06900
C838        C  0.24954427  0.86803466  0.69304821    -0.07700
C839        C  0.25129274  0.86193232  0.72429732    -0.02200
C840        C  0.20370230  0.87413179  0.74157121     0.04600
N841        N  0.20196655  0.86893640  0.77330172     0.67100
H842        H  0.12307239  0.90359059  0.74197962     0.16000
H843        H  0.28418134  0.85757897  0.67894877     0.15700
N844        N  0.20539225  0.89247856  0.64748228     0.74800
O845        O  0.23090116  0.88001599  0.79128647    -0.38700
O846        O  0.16307495  0.85931168  0.78370370    -0.38600
O847        O  0.24873474  0.89638852  0.63557266    -0.39300
O848        O  0.16596621  0.88932919  0.63063817    -0.39400
C849        C  0.26980419  0.63552862  0.84928973    -0.11700
C850        C  0.29606097  0.65726357  0.84156602     0.05300
C851        C  0.31257710  0.65917669  0.81137592    -0.06900
C852        C  0.29561299  0.64202488  0.78870917    -0.07700
C853        C  0.26415998  0.62233534  0.79616663    -0.02200
C854        C  0.25497866  0.61758371  0.82698327     0.04600
N855        N  0.22431609  0.59706958  0.83542750     0.67100
H856        H  0.25691943  0.63399059  0.87247776     0.16000
H857        H  0.30259366  0.64600349  0.76510942     0.15700
N858        N  0.34181191  0.68037361  0.80319119     0.74800
O859        O  0.24382127  0.57020192  0.83036997    -0.38700
O860        O  0.17965161  0.60551015  0.84979688    -0.38600
O861        O  0.39175424  0.67696139  0.81116264    -0.39300
O862        O  0.31952185  0.70105820  0.78585615    -0.39400
C863        C  0.28755827  0.80121261  0.83045300    -0.11700
C864        C  0.25555429  0.78096340  0.82758040     0.05300
C865        C  0.23012455  0.77753973  0.79959636    -0.06900
C866        C  0.24336165  0.79161016  0.77389210    -0.07700
C867        C  0.27955906  0.81004514  0.77624947    -0.02200
C868        C  0.29979007  0.81586843  0.80523581     0.04600
N869        N  0.33682991  0.83447846  0.80932209     0.67100
H870        H  0.30685980  0.80394829  0.85208194     0.16000
H871        H  0.22772433  0.78698391  0.75186079     0.15700
N872        N  0.19371716  0.75854725  0.79673009     0.74800
O873        O  0.32652473  0.85411163  0.82955389    -0.38700
O874        O  0.38532476  0.82661106  0.79908974    -0.38600
O875        O  0.14720265  0.76527635  0.80948823    -0.39300
O876        O  0.20488615  0.73707480  0.77865949    -0.39400
C877        C  0.15747606  0.63462633  0.97869023    -0.11700
C878        C  0.11417479  0.64796653  0.99802196     0.05300
C879        C  0.09354859  0.67850325  0.99785254    -0.06900
C880        C  0.11906233  0.69520066  0.97957517    -0.07700
C881        C  0.16457711  0.68193076  0.96163954    -0.02200
C882        C  0.18291419  0.65127692  0.96033788     0.04600
N883        N  0.22921145  0.63686688  0.94213309     0.67100
H884        H  0.17340752  0.61108666  0.97904650     0.16000
H885        H  0.10466714  0.71886559  0.98028339     0.15700
N886        N  0.04940185  0.69289189  0.51737074     0.74800
O887        O  0.27352598  0.64523306  0.94294967    -0.38700
O888        O  0.22814533  0.61367206  0.92796005    -0.38600
O889        O  0.05312772  0.68873916  0.54558196    -0.39300
O890        O  0.00933137  0.71214918  0.50683222    -0.39400
C891        C  0.45817196  0.65377375  0.95606392    -0.11700
C892        C  0.41208529  0.67181162  0.97051142     0.05300
C893        C  0.40822743  0.67007452  0.00242537    -0.06900
C894        C  0.45124372  0.65190123  0.01902180    -0.07700
C895        C  0.49879999  0.63538694  0.00474921    -0.02200
C896        C  0.50097603  0.63516467  0.97271141     0.04600
N897        N  0.54598205  0.61603703  0.95688418     0.67100
H898        H  0.46070139  0.65403727  0.93159796     0.16000
H899        H  0.44943862  0.65243451  0.54353513     0.15700
N900        N  0.36320139  0.68830391  0.01873155     0.74800
O901        O  0.56918166  0.59135058  0.96757443    -0.38700
O902        O  0.05998435  0.62280886  0.93108815    -0.38600
O903        O  0.33242864  0.67690440  0.53452515    -0.39300
O904        O  0.35961936  0.71531614  0.02119959    -0.39400
C905        C  0.01884552  0.56259482  0.54347170    -0.11700
C906        C  0.01324513  0.58961419  0.55806649     0.05300
C907        C  0.48868843  0.59421315  0.58689914    -0.06900
C908        C  0.47551930  0.57092884  0.60193319    -0.07700
C909        C  0.98829684  0.54292957  0.58889453    -0.02200
C910        C  0.00681932  0.53915777  0.55872285     0.04600
N911        N  0.01760585  0.01117645  0.54420265     0.67100
H912        H  0.03809490  0.55881899  0.52141603     0.16000
H913        H  0.46123756  0.57403060  0.62511448     0.15700
N914        N  0.48308318  0.62139763  0.60258788     0.74800
O915        O  0.97847694  0.99907900  0.53940699    -0.38700
O916        O  0.06569906  0.99888758  0.53526717    -0.38600
O917        O  0.43550792  0.63780108  0.60686491    -0.39300
O918        O  0.52413764  0.62660233  0.61651448    -0.39400
C919        C  0.07938544  0.85196059  0.95071347    -0.11700
C920        C  0.03752315  0.84548179  0.96834604     0.05300
C921        C  0.04185935  0.81635596  0.97694726    -0.06900
C922        C  0.08567824  0.79421816  0.96567268    -0.07700
C923        C  0.12619747  0.80076181  0.94717674    -0.02200
C924        C  0.12401545  0.82996873  0.94040144     0.04600
N925        N  0.16480641  0.83738027  0.92157708     0.67100
H926        H  0.07512774  0.87412919  0.94308112     0.16000
H927        H  0.08884660  0.77164114  0.97176342     0.15700
N928        N  0.00196323  0.80913736  0.49675729     0.74800
O929        O  0.17326127  0.82659714  0.89525717    -0.38300
O930        O  0.18842326  0.85688306  0.93004424    -0.38600
O931        O  0.99246374  0.78413387  0.49557447    -0.39300
O932        O  0.97917524  0.82692936  0.51708296    -0.39400
C933        C  0.38111054  0.83776093  0.96574947    -0.11700
C934        C  0.42022743  0.84299972  0.94546569     0.05300
C935        C  0.43861057  0.82320853  0.92152885    -0.06900
C936        C  0.41668210  0.79870411  0.91806464    -0.07700
C937        C  0.37677439  0.79355117  0.93819804    -0.02200
C938        C  0.35977981  0.81322060  0.96259498     0.04600
N939        N  0.32038672  0.80890285  0.98419503     0.67100
H940        H  0.36781765  0.85265472  0.48460780     0.16000
H941        H  0.43033399  0.78386549  0.89923679     0.15700
N942        N  0.47869001  0.82790631  0.90044465     0.74800
O943        O  0.33697590  0.79380979  0.50746770    -0.38700
O944        O  0.27084548  0.82367274  0.98249808    -0.38600
O945        O  0.01961538  0.80728844  0.89352154    -0.39300
O946        O  0.47054289  0.85177984  0.88656492    -0.39400
C947        C  0.05349220  0.91345674  0.55331129    -0.11700
C948        C  0.00763814  0.92228286  0.57254602     0.05300
C949        C  0.45614929  0.91761229  0.56297363    -0.06900
C950        C  0.45055874  0.90659415  0.53402775    -0.07700
C951        C  0.99454683  0.90092706  0.51356523    -0.02200
C952        C  0.04716440  0.90319337  0.52370403     0.04600
N953        N  0.09340983  0.89720754  0.50377092     0.67100
H954        H  0.09326014  0.91685001  0.56029300     0.16000
H955        H  0.41027939  0.90401686  0.52683460     0.15700
N956        N  0.40812996  0.92530106  0.58168618     0.74800
O957        O  0.09352111  0.91347310  0.48135044    -0.38700
O958        O  0.13726947  0.87868465  0.51109971    -0.38600
O959        O  0.37605570  0.95043341  0.57946818    -0.39300
O960        O  0.39045283  0.90531140  0.59363753    -0.39400
N961        N  0.48621359  0.36730062  0.47115427    -0.02900
C962        C  0.48140859  0.39485486  0.98162216    -0.00300
C963        C  0.93654654  0.41342236  0.96738541    -0.23200
C964        C  0.91217137  0.39656755  0.94883881    -0.23400
C965        C  0.94353726  0.36832423  0.45159736    -0.00400
H966        H  0.91819722  0.43592156  0.97358254     0.13400
H967        H  0.87243729  0.40359303  0.93751937     0.13400
N968        N  0.54747872  0.12336931  0.52313694    -0.02900
C969        C  0.55092533  0.10740738  0.04877707    -0.00300
C970        C  0.60264616  0.10346251  0.06212131    -0.23200
C971        C  0.63207662  0.11779329  0.54458098    -0.23400
C972        C  0.59731993  0.12995419  0.52114389    -0.00400
H973        H  0.61800404  0.09045580  0.08184199     0.13400
H974        H  0.67426106  0.11923485  0.54844499     0.13400
O975        O  0.85325782  0.25785941  0.40613528    -0.81200
C976        C  0.69392780  0.20056403  0.44590432     0.98200
O977        O  0.71352443  0.21849370  0.46126174    -0.70300
O978        O  0.82195378  0.20258098  0.46295881    -0.73900
Al979      Al  0.77090335  0.23788208  0.45286525     1.49000
C980        C  0.86953641  0.19259717  0.45224679     0.93400
O981        O  0.83109054  0.18574381  0.37804969    -0.80100
O982        O  0.71715835  0.25967838  0.36750713    -0.73700
Al983      Al  0.83769778  0.22237510  0.39383079     1.90100
O984        O  0.74401734  0.20017072  0.36424055    -0.72700
O985        O  0.66220790  0.25821444  0.41816192    -0.72600
O986        O  0.69892771  0.19864625  0.41752455    -0.78300
O987        O  0.71964061  0.27435848  0.44758483    -0.76500
O988        O  0.77350667  0.22971068  0.41338326    -1.12600
O989        O  0.82709693  0.25907674  0.45320091    -0.71800
C990        C  0.85136747  0.26877717  0.43230239     0.98900
C991        C  0.79062123  0.18221480  0.36249402     0.95300
Al992      Al  0.71093967  0.22918824  0.39345882     1.55600
O993        O  0.88158272  0.20086744  0.42652590    -0.76400
C994        C  0.67191218  0.27691211  0.43669370     0.99500
C995        C  0.75932624  0.26002667  0.35220691     0.94400
O996        O  0.80614736  0.24294893  0.35796197    -0.81700
N997        N  0.80192009  0.34365894  0.23720274    -0.02900
C998        C  0.80730214  0.31651038  0.24875435    -0.00300
C999        C  0.85953602  0.29907200  0.24286037    -0.23200
C1000       C  0.88849615  0.31611149  0.22882981    -0.23400
C1001       C  0.85279459  0.34335135  0.22618414    -0.00400
H1002       H  0.87713092  0.27746046  0.25165904     0.13400
H1003       H  0.93193613  0.30985681  0.22310042     0.13400
N1004       N  0.73476571  0.09556123  0.25088237    -0.02900
C1005       C  0.72463396  0.11581900  0.27349018    -0.00300
C1006       C  0.66847585  0.12835571  0.27548763    -0.23200
C1007       C  0.64290568  0.11496831  0.25402439    -0.23400
C1008       C  0.68423022  0.09469621  0.23945760    -0.00400
H1009       H  0.64810180  0.14442743  0.29199872     0.13400
H1010       H  0.59869950  0.11803097  0.25111431     0.13400
O1011       O  0.59529212  0.99980043  0.15724190    -0.81200
C1012       C  0.93737723  0.43872195  0.18581193     0.98200
O1013       O  0.96198615  0.45080727  0.20544638    -0.70300
O1014       O  0.56910857  0.43361058  0.20010199    -0.73900
Al1015     Al  0.51959175  0.47092845  0.20122801     1.49000
C1016       C  0.61348146  0.42584413  0.18560453     0.93400
O1017       O  0.55594928  0.43746816  0.11467113    -0.80100
O1018       O  0.95486804  0.01643437  0.12662384    -0.73700
Al1019     Al  0.57265602  0.46893768  0.13764735     1.90100
O1020       O  0.96920526  0.45996187  0.10706394    -0.72700
O1021       O  0.90696171  0.00384505  0.17559059    -0.72600
O1022       O  0.93331577  0.44652582  0.15854305    -0.78300
O1023       O  0.97022612  0.00803839  0.20877711    -0.76500
O1024       O  0.51316365  0.47364306  0.16095154    -1.12600
O1025       O  0.57869162  0.99036281  0.20441243    -0.71800
C1026       C  0.60016479  0.00385454  0.18528246     0.98900
C1027       C  0.51128146  0.44025306  0.09987570     0.95300
Al1028     Al  0.94659269  0.48107598  0.14352733     1.55600
O1029       O  0.62099992  0.44004255  0.16261817    -0.76400
C1030       C  0.92140317  0.01595403  0.19876318     0.99500
C1031       C  0.49321526  0.01752882  0.10862162     0.94400
O1032       O  0.53738366  0.99729336  0.10783818    -0.81700
C1033       C  0.82610436  0.06087640  0.25787261    -0.11700
C1034       C  0.78746107  0.07955691  0.23908099     0.05300
C1035       C  0.79760171  0.07960226  0.20763645    -0.06900
C1036       C  0.84272691  0.05918632  0.19536015    -0.07700
C1037       C  0.87941899  0.03931325  0.21376245    -0.02200
C1038       C  0.87202553  0.04075091  0.24542699     0.04600
N1039       N  0.90782981  0.52018209  0.26486703     0.67100
H1040       H  0.81857411  0.06056657  0.28194127     0.16000
H1041       H  0.84921356  0.05868684  0.17110505     0.15700
N1042       N  0.76214392  0.10013895  0.18789375     0.74800
O1043       O  0.94088714  0.52850932  0.28269309    -0.38700
O1044       O  0.90584476  0.49377949  0.26452872    -0.38600
O1045       O  0.74367412  0.12629902  0.19634351    -0.39300
O1046       O  0.75424110  0.09307806  0.16083597    -0.39400
C1047       C  0.61070759  0.05432339  0.18502643    -0.11700
C1048       C  0.62887114  0.02583680  0.19587452     0.05300
C1049       C  0.67116975  0.01949806  0.21797026    -0.06900
C1050       C  0.69299318  0.04194197  0.22985037    -0.07700
C1051       C  0.67211463  0.07090186  0.22052643    -0.02200
C1052       C  0.63133104  0.07692994  0.19739761     0.04600
N1053       N  0.60833116  0.10610079  0.18737332     0.67100
H1054       H  0.57824316  0.05933073  0.16792465     0.16000
H1055       H  0.72348384  0.03700874  0.24795968     0.15700
N1056       N  0.69156220  0.49043308  0.22895061     0.74800
O1057       O  0.63571075  0.11798821  0.16991051    -0.38700
O1058       O  0.55756618  0.11772580  0.19124856    -0.38600
O1059       O  0.73565133  0.47451226  0.21829690    -0.39300
O1060       O  0.66965948  0.48206647  0.25168012    -0.39400
C1061       C  0.87593459  0.41935108  0.21847387    -0.11700
C1062       C  0.91385771  0.41477850  0.19480079     0.05300
C1063       C  0.92935019  0.38732143  0.18020991    -0.06900
C1064       C  0.90639940  0.36485262  0.18986452    -0.07700
C1065       C  0.86996581  0.36894883  0.21443035    -0.02200
C1066       C  0.85417712  0.39667444  0.22860182     0.04600
N1067       N  0.82018645  0.40157688  0.25489114     0.67100
H1068       H  0.86447641  0.44044275  0.22976679     0.16000
H1069       H  0.91891876  0.34364408  0.17893284     0.15700
N1070       N  0.97088857  0.38135933  0.15710422     0.74800
O1071       O  0.77689591  0.42214166  0.25514480    -0.38700
O1072       O  0.84004365  0.39040365  0.27962341    -0.38600
O1073       O  0.51563450  0.38890841  0.16096150    -0.39300
O1074       O  0.96643462  0.36496595  0.13493762    -0.39400
C1075       C  0.65797000  0.39337167  0.22789048    -0.11700
C1076       C  0.65828502  0.40118600  0.19719751     0.05300
C1077       C  0.70412085  0.38733336  0.17938694    -0.06900
C1078       C  0.74951933  0.36798257  0.19302539    -0.07700
C1079       C  0.75131599  0.36191653  0.22428414    -0.02200
C1080       C  0.70375636  0.37413681  0.24157277     0.04600
N1081       N  0.70205531  0.36895414  0.27330862     0.67100
H1082       H  0.62314766  0.40361635  0.24199522     0.16000
H1083       H  0.78413092  0.35750372  0.17891941     0.15700
N1084       N  0.70525184  0.39234687  0.14744136     0.74800
O1085       O  0.73111781  0.37997483  0.29127112    -0.38700
O1086       O  0.66312734  0.35937933  0.28374211    -0.38600
O1087       O  0.74860756  0.39615126  0.13545235    -0.39300
O1088       O  0.66571109  0.38923624  0.13066518    -0.39400
C1089       C  0.76975396  0.13556917  0.34925397    -0.11700
C1090       C  0.79600937  0.15730859  0.34154088     0.05300
C1091       C  0.81244554  0.15926157  0.31133974    -0.06900
C1092       C  0.79545790  0.14212015  0.28866813    -0.07700
C1093       C  0.76404840  0.12240951  0.29612115    -0.02200
C1094       C  0.75488341  0.11764603  0.32693795     0.04600
N1095       N  0.72418820  0.09714481  0.33537723     0.67100
H1096       H  0.75690026  0.13401278  0.37244422     0.16000
H1097       H  0.80240423  0.14611344  0.26506813     0.15700
N1098       N  0.84163263  0.18048285  0.30315455     0.74800
O1099       O  0.74362972  0.07027827  0.33028428    -0.38700
O1100       O  0.67953545  0.10559663  0.34975519    -0.38600
O1101       O  0.89129659  0.17734456  0.31154471    -0.39300
O1102       O  0.81965332  0.20089704  0.28543570    -0.39400
C1103       C  0.78774167  0.30120231  0.33044961    -0.11700
C1104       C  0.75567972  0.28097816  0.32760184     0.05300
C1105       C  0.73019173  0.27756672  0.29963164    -0.06900
C1106       C  0.74341632  0.29162567  0.27391570    -0.07700
C1107       C  0.77965866  0.31003758  0.27624733    -0.02200
C1108       C  0.79996126  0.31584727  0.30522071     0.04600
N1109       N  0.83704316  0.33443831  0.30928218     0.67100
H1110       H  0.80708908  0.30392780  0.35206749     0.16000
H1111       H  0.72772583  0.28701068  0.25189405     0.15700
N1112       N  0.69374371  0.25859279  0.29678896     0.74800
O1113       O  0.82681926  0.35406001  0.32952780    -0.38700
O1114       O  0.88550382  0.32656433  0.29900414    -0.38600
O1115       O  0.64736466  0.26526575  0.30969422    -0.39300
O1116       O  0.70473765  0.23718824  0.27862750    -0.39400
C1117       C  0.65746967  0.13471792  0.47877828    -0.11700
C1118       C  0.61419060  0.14807471  0.49811572     0.05300
C1119       C  0.59357765  0.17861083  0.49792649    -0.06900
C1120       C  0.61908691  0.19529301  0.47962927    -0.07700
C1121       C  0.66457762  0.18200789  0.46168397    -0.02200
C1122       C  0.68288932  0.15135268  0.46039625     0.04600
N1123       N  0.72914301  0.13692754  0.44217153     0.67100
H1124       H  0.67339448  0.11117589  0.47914735     0.16000
H1125       H  0.60470194  0.21896451  0.48032896     0.15700
N1126       N  0.54924530  0.19302613  0.01731403     0.74800
O1127       O  0.77350461  0.14524864  0.44299545    -0.38700
O1128       O  0.72797926  0.11376558  0.42796188    -0.38600
O1129       O  0.55291638  0.18898511  0.04554375    -0.39300
O1130       O  0.50913675  0.21220223  0.00668623    -0.39400
C1131       C  0.95830716  0.15381466  0.45612686    -0.11700
C1132       C  0.91212895  0.17180165  0.47054672     0.05300
C1133       C  0.90819074  0.17003653  0.50245400    -0.06900
C1134       C  0.95122068  0.15190258  0.51907371    -0.07700
C1135       C  0.99886632  0.13544722  0.50483351    -0.02200
C1136       C  0.00112538  0.13523892  0.47279732     0.04600
N1137       N  0.04622884  0.11616132  0.45699370     0.67100
H1138       H  0.96090470  0.15409629  0.43166461     0.16000
H1139       H  0.94935512  0.15238987  0.04355544     0.15700
N1140       N  0.86305469  0.18819964  0.51873595     0.74800
O1141       O  0.06952829  0.09149477  0.46769615    -0.38700
O1142       O  0.56013961  0.12286682  0.43115474    -0.38600
O1143       O  0.83227370  0.17670520  0.03441885    -0.39300
O1144       O  0.85943698  0.21520630  0.52132648    -0.39400
C1145       C  0.51904993  0.06266059  0.04353242    -0.11700
C1146       C  0.51333729  0.08967694  0.05815035     0.05300
C1147       C  0.98871189  0.09423162  0.08695518    -0.06900
C1148       C  0.97553811  0.07092681  0.10194976    -0.07700
C1149       C  0.48836662  0.04294349  0.08888941    -0.02200
C1150       C  0.50701512  0.03920057  0.05873879     0.04600
N1151       N  0.51727738  0.51111452  0.04420749     0.67100
H1152       H  0.53837609  0.05890917  0.02149540     0.16000
H1153       H  0.96117942  0.07401105  0.12511775     0.15700
N1154       N  0.98301525  0.12141039  0.10266727     0.74800
O1155       O  0.47811577  0.49900985  0.03955254    -0.38700
O1156       O  0.56530150  0.49880934  0.03518174    -0.38600
O1157       O  0.93541329  0.13780863  0.10687974    -0.39300
O1158       O  0.02399141  0.12661051  0.11667688    -0.39400
C1159       C  0.57948293  0.35200291  0.45071357    -0.11700
C1160       C  0.53762659  0.34552430  0.46835007     0.05300
C1161       C  0.54199305  0.31640283  0.47697743    -0.06900
C1162       C  0.58583625  0.29426931  0.46572262    -0.07700
C1163       C  0.62634937  0.30081080  0.44722153    -0.02200
C1164       C  0.62414272  0.33001678  0.44042486     0.04600
N1165       N  0.66493636  0.33743107  0.42160340     0.67100
H1166       H  0.57519177  0.37416800  0.44305242     0.16000
H1167       H  0.58902017  0.27168791  0.47182788     0.15700
N1168       N  0.50221340  0.30921329  0.99683261     0.74800
O1169       O  0.67351028  0.32658607  0.39531480    -0.38300
O1170       O  0.68842965  0.35699524  0.43003353    -0.38600
O1171       O  0.49273597  0.28420375  0.99568948    -0.39300
O1172       O  0.47941070  0.32702930  0.01713484    -0.39400
C1173       C  0.88131917  0.33774099  0.46572775    -0.11700
C1174       C  0.92046035  0.34295879  0.44544733     0.05300
C1175       C  0.93888958  0.32313441  0.42154179    -0.06900
C1176       C  0.91695020  0.29863075  0.41809434    -0.07700
C1177       C  0.87699164  0.29351031  0.43821294    -0.02200
C1178       C  0.85997760  0.31320295  0.46258843     0.04600
N1179       N  0.82053191  0.30891880  0.48417306     0.67100
H1180       H  0.86782355  0.35268276  0.98451498     0.16000
H1181       H  0.93062538  0.28376953  0.39928712     0.15700
N1182       N  0.97902313  0.32779655  0.40047111     0.74800
O1183       O  0.83677920  0.29398596  0.00744973    -0.38700
O1184       O  0.77097804  0.32365881  0.48240481    -0.38600
O1185       O  0.51990056  0.30711188  0.39356649    -0.39300
O1186       O  0.97097941  0.35167326  0.38660527    -0.39400
C1187       C  0.55348628  0.41349883  0.05328635    -0.11700
C1188       C  0.50760491  0.42235160  0.07249879     0.05300
C1189       C  0.95608539  0.41771921  0.06291703    -0.06900
C1190       C  0.95050470  0.40670803  0.03396691    -0.07700
C1191       C  0.49456304  0.40102202  0.01349559    -0.02200
C1192       C  0.54718600  0.40324952  0.02366881     0.04600
N1193       N  0.59347135  0.39723754  0.00376166     0.67100
H1194       H  0.59326687  0.41685502  0.06029700     0.16000
H1195       H  0.91021374  0.40416106  0.02675717     0.15700
N1196       N  0.90803916  0.42544719  0.08160613     0.74800
O1197       O  0.59358921  0.41344769  0.98129548    -0.38700
O1198       O  0.63734611  0.37875517  0.01114947    -0.38600
O1199       O  0.87601792  0.45059173  0.07936680    -0.39300
O1200       O  0.89030044  0.40548329  0.09356768    -0.39400
N1201       N  0.48624779  0.36730285  0.97115149    -0.02900
C1202       C  0.48137553  0.39485019  0.48163258    -0.00300
C1203       C  0.93657105  0.41342798  0.46735999    -0.23200
C1204       C  0.91219489  0.39656748  0.44882080    -0.23400
C1205       C  0.94351209  0.36832299  0.95160775    -0.00400
H1206       H  0.91821960  0.43592834  0.47355172     0.13400
H1207       H  0.87245917  0.40358904  0.43750227     0.13400
N1208       N  0.54747883  0.12338241  0.02315169    -0.02900
C1209       C  0.55093673  0.10739137  0.54876063    -0.00300
C1210       C  0.60266701  0.10344065  0.56209502    -0.23200
C1211       C  0.63206251  0.11781479  0.04461149    -0.23400
C1212       C  0.59731894  0.12997084  0.02116715    -0.00400
H1213       H  0.61803376  0.09043138  0.58181276     0.13400
H1214       H  0.67424445  0.11925780  0.04848204     0.13400
O1215       O  0.85325315  0.25785526  0.90612113    -0.81200
C1216       C  0.69393114  0.20056002  0.94590193     0.98200
O1217       O  0.71352894  0.21849075  0.96125591    -0.70300
O1218       O  0.82195787  0.20257230  0.96294780    -0.73900
Al1219     Al  0.77091012  0.23787464  0.95285489     1.49000
C1220       C  0.86954115  0.19258971  0.95223602     0.93400
O1221       O  0.83109871  0.18573447  0.87804127    -0.80100
O1222       O  0.71715861  0.25966204  0.86749186    -0.73700
Al1223     Al  0.83770087  0.22236745  0.89381961     1.90100
O1224       O  0.74401977  0.20015400  0.86423940    -0.72700
O1225       O  0.66221455  0.25820877  0.91815056    -0.72600
O1226       O  0.69893009  0.19863821  0.91752253    -0.78300
O1227       O  0.71965094  0.27435114  0.94757319    -0.76500
O1228       O  0.77351033  0.22970189  0.91337300    -1.12600
O1229       O  0.82710554  0.25906691  0.95318889    -0.71800
C1230       C  0.85136259  0.26877268  0.93228845     0.98900
C1231       C  0.79062557  0.18219993  0.86249240     0.95300
Al1232     Al  0.71094246  0.22917678  0.89345105     1.55600
O1233       O  0.88158830  0.20086261  0.92651628    -0.76400
C1234       C  0.67192292  0.27690696  0.93668065     0.99500
C1235       C  0.75932558  0.26001052  0.85219112     0.94400
O1236       O  0.80614894  0.24293671  0.85794905    -0.81700
N1237       N  0.80190931  0.34364863  0.73718931    -0.02900
C1238       C  0.80729444  0.31649953  0.74874027    -0.00300
C1239       C  0.85953234  0.29906407  0.74284963    -0.23200
C1240       C  0.88849023  0.31610565  0.72882056    -0.23400
C1241       C  0.85278401  0.34334395  0.72617313    -0.00400
H1242       H  0.87712969  0.27745291  0.75164861     0.13400
H1243       H  0.93193099  0.30985341  0.72309259     0.13400
N1244       N  0.73476846  0.09555036  0.75088260    -0.02900
C1245       C  0.72463560  0.11580833  0.77348985    -0.00300
C1246       C  0.66847785  0.12834838  0.77548255    -0.23200
C1247       C  0.64290973  0.11496247  0.75401695    -0.23400
C1248       C  0.68423483  0.09468788  0.73945341    -0.00400
H1249       H  0.64810189  0.14442007  0.79199311     0.13400
H1250       H  0.59870368  0.11802687  0.75110425     0.13400
O1251       O  0.59528912  0.99979136  0.65724691    -0.81200
C1252       C  0.93736659  0.43871486  0.68580250     0.98200
O1253       O  0.96197840  0.45079663  0.70543887    -0.70300
O1254       O  0.56911192  0.43361236  0.70009643    -0.73900
Al1255     Al  0.51960050  0.47093106  0.70122487     1.49000
C1256       C  0.61348295  0.42584506  0.68559751     0.93400
O1257       O  0.55594501  0.43746970  0.61466956    -0.80100
O1258       O  0.95486568  0.01643575  0.62662176    -0.73700
Al1259     Al  0.57265570  0.46893975  0.63764229     1.90100
O1260       O  0.96920801  0.45995848  0.60705781    -0.72700
O1261       O  0.90696970  0.00384732  0.67559142    -0.72600
O1262       O  0.93330722  0.44652133  0.65853440    -0.78300
O1263       O  0.97024160  0.00804244  0.70877302    -0.76500
O1264       O  0.51316679  0.47364561  0.66094877    -1.12600
O1265       O  0.57867928  0.99035318  0.70441582    -0.71800
C1266       C  0.60015621  0.00384527  0.68528785     0.98900
C1267       C  0.51127451  0.44025241  0.59987737     0.95300
Al1268     Al  0.94659219  0.48107099  0.64352217     1.55600
O1269       O  0.62100205  0.44004446  0.66261198    -0.76400
C1270       C  0.92141640  0.01595703  0.69876203     0.99500
C1271       C  0.49321966  0.01752457  0.60862238     0.94400
O1272       O  0.53738764  0.99728901  0.60784044    -0.81700
C1273       C  0.82610219  0.06086206  0.75787310    -0.11700
C1274       C  0.78746537  0.07954777  0.73908274     0.05300
C1275       C  0.79761658  0.07960322  0.70764012    -0.06900
C1276       C  0.84274794  0.05919239  0.69536297    -0.07700
C1277       C  0.87943418  0.03931461  0.71376331    -0.02200
C1278       C  0.87202911  0.04074179  0.74542679     0.04600
N1279       N  0.90784168  0.52017972  0.76486672     0.67100
H1280       H  0.81856320  0.06054480  0.78194032     0.16000
H1281       H  0.84924271  0.05869966  0.67110879     0.15700
N1282       N  0.76216322  0.10014479  0.68790021     0.74800
O1283       O  0.94087211  0.52851300  0.78270579    -0.38700
O1284       O  0.90587579  0.49377422  0.76452187    -0.38600
O1285       O  0.74369140  0.12630280  0.69635625    -0.39300
O1286       O  0.75426863  0.09309089  0.66083909    -0.39400
C1287       C  0.61070771  0.05431267  0.68502770    -0.11700
C1288       C  0.62886146  0.02582769  0.69588158     0.05300
C1289       C  0.67115672  0.01948992  0.71797930    -0.06900
C1290       C  0.69298754  0.04193323  0.72985470    -0.07700
C1291       C  0.67211822  0.07089200  0.72052493    -0.02200
C1292       C  0.63133748  0.07691882  0.69739464     0.04600
N1293       N  0.60834725  0.10608842  0.68736416     0.67100
H1294       H  0.57824694  0.05931932  0.66792382     0.16000
H1295       H  0.72347578  0.03700103  0.74796529     0.15700
N1296       N  0.69161429  0.49042167  0.72891678     0.74800
O1297       O  0.63573042  0.11796743  0.66989500    -0.38700
O1298       O  0.55758465  0.11771931  0.69123969    -0.38600
O1299       O  0.73569944  0.47450975  0.71824905    -0.39300
O1300       O  0.66973255  0.48204132  0.75164605    -0.39400
C1301       C  0.87592392  0.41934368  0.71846435    -0.11700
C1302       C  0.91384135  0.41477234  0.69478844     0.05300
C1303       C  0.92932314  0.38731722  0.68019264    -0.06900
C1304       C  0.90637499  0.36484793  0.68984875    -0.07700
C1305       C  0.86995010  0.36894247  0.71441832    -0.02200
C1306       C  0.85416431  0.39666741  0.72859131     0.04600
N1307       N  0.82017038  0.40157026  0.75487940     0.67100
H1308       H  0.86447059  0.44043431  0.72975963     0.16000
H1309       H  0.91888898  0.34364026  0.67891476     0.15700
N1310       N  0.97084715  0.38135734  0.65707924     0.74800
O1311       O  0.77687796  0.42213394  0.75513033    -0.38700
O1312       O  0.84002596  0.39039989  0.77961310    -0.38600
O1313       O  0.51566924  0.38890726  0.66098875    -0.39300
O1314       O  0.96637633  0.36496855  0.63491146    -0.39400
C1315       C  0.65796413  0.39336547  0.72787922    -0.11700
C1316       C  0.65828279  0.40118408  0.69718774     0.05300
C1317       C  0.70411763  0.38733157  0.67937643    -0.06900
C1318       C  0.74951141  0.36797588  0.69301299    -0.07700
C1319       C  0.75130541  0.36190616  0.72427084    -0.02200
C1320       C  0.70374646  0.37412637  0.74155954     0.04600
N1321       N  0.70204304  0.36893992  0.77329415     0.67100
H1322       H  0.62314238  0.40360955  0.74198464     0.16000
H1323       H  0.78412261  0.35749739  0.67890659     0.15700
N1324       N  0.70525376  0.39235125  0.64743235     0.74800
O1325       O  0.73106053  0.37998440  0.79126162    -0.38700
O1326       O  0.66313669  0.35934268  0.78372022    -0.38600
O1327       O  0.74861099  0.39615896  0.63544806    -0.39300
O1328       O  0.66571635  0.38924313  0.63065215    -0.39400
C1329       C  0.76971363  0.13556449  0.84925930    -0.11700
C1330       C  0.79600904  0.15728829  0.84154752     0.05300
C1331       C  0.81248770  0.15922207  0.81135157    -0.06900
C1332       C  0.79549811  0.14208242  0.78867894    -0.07700
C1333       C  0.76404619  0.12239061  0.79612834    -0.02200
C1334       C  0.75484481  0.11764029  0.82694370     0.04600
N1335       N  0.72412063  0.09715083  0.83537990     0.67100
H1336       H  0.75683315  0.13402098  0.87244562     0.16000
H1337       H  0.80247544  0.14606460  0.76508081     0.15700
N1338       N  0.84171853  0.18042481  0.80316979     0.74800
O1339       O  0.74349576  0.07028662  0.83024321    -0.38700
O1340       O  0.67949816  0.10560883  0.84978382    -0.38600
O1341       O  0.89142261  0.17723112  0.81150889    -0.39300
O1342       O  0.81972838  0.20087847  0.78549869    -0.39400
C1343       C  0.78771186  0.30119509  0.83043390    -0.11700
C1344       C  0.75567535  0.28095920  0.82758317     0.05300
C1345       C  0.73020813  0.27753678  0.79960986    -0.06900
C1346       C  0.74342724  0.29159879  0.77389493    -0.07700
C1347       C  0.77964547  0.31002362  0.77622997    -0.02200
C1348       C  0.79992737  0.31584241  0.80520557     0.04600
N1349       N  0.83698818  0.33444442  0.80927029     0.67100
H1350       H  0.80704413  0.30392851  0.85205418     0.16000
H1351       H  0.72775411  0.28697551  0.75187166     0.15700
N1352       N  0.69378743  0.25854905  0.79676348     0.74800
O1353       O  0.82674660  0.35406457  0.82951712    -0.38700
O1354       O  0.88545043  0.32658284  0.79899245    -0.38600
O1355       O  0.64736895  0.26523113  0.80962645    -0.39300
O1356       O  0.70485165  0.23711898  0.77863611    -0.39400
C1357       C  0.65754590  0.13472188  0.97883404    -0.11700
C1358       C  0.61420826  0.14808204  0.99813507     0.05300
C1359       C  0.59353851  0.17861477  0.99790090    -0.06900
C1360       C  0.61904254  0.19529163  0.97959291    -0.07700
C1361       C  0.66458680  0.18200511  0.96168605    -0.02200
C1362       C  0.68296501  0.15135211  0.96044662     0.04600
N1363       N  0.72928366  0.13692851  0.94226653     0.67100
H1364       H  0.67351317  0.11118393  0.97923657     0.16000
H1365       H  0.60461358  0.21896044  0.98025606     0.15700
N1366       N  0.54933837  0.19301619  0.51737469     0.74800
O1367       O  0.77362070  0.14527215  0.94312020    -0.38700
O1368       O  0.72819597  0.11375018  0.92806797    -0.38600
O1369       O  0.55309640  0.18897513  0.54560315    -0.39300
O1370       O  0.50919117  0.21218734  0.50677545    -0.39400
C1371       C  0.95830897  0.15380520  0.95611202    -0.11700
C1372       C  0.91213303  0.17179171  0.97053419     0.05300
C1373       C  0.90819518  0.17002173  0.00244124    -0.06900
C1374       C  0.95122623  0.15188532  0.01905854    -0.07700
C1375       C  0.99887104  0.13543180  0.00481613    -0.02200
C1376       C  0.00112669  0.13522635  0.97277988     0.04600
N1377       N  0.04622570  0.11614798  0.95697358     0.67100
H1378       H  0.96090461  0.15408934  0.93164979     0.16000
H1379       H  0.94934802  0.15241044  0.54357056     0.15700
N1380       N  0.86305787  0.18818115  0.01872575     0.74800
O1381       O  0.06952396  0.09148054  0.96767442    -0.38700
O1382       O  0.56019918  0.12291630  0.93117500    -0.38600
O1383       O  0.83224397  0.17672776  0.53441428    -0.39300
O1384       O  0.85942048  0.21519039  0.02130665    -0.39400
C1385       C  0.51905004  0.06264800  0.54352582    -0.11700
C1386       C  0.51334648  0.08966511  0.55814068     0.05300
C1387       C  0.98869521  0.09423939  0.58696757    -0.06900
C1388       C  0.97552509  0.07093053  0.60195607    -0.07700
C1389       C  0.48837361  0.04293728  0.58888832    -0.02200
C1390       C  0.50701653  0.03919072  0.55873701     0.04600
N1391       N  0.51727871  0.51112627  0.54420381     0.67100
H1392       H  0.53837215  0.05889293  0.52148793     0.16000
H1393       H  0.96116104  0.07401044  0.62512329     0.15700
N1394       N  0.98298626  0.12141671  0.60268384     0.74800
O1395       O  0.47813236  0.49900246  0.53958622    -0.38700
O1396       O  0.56528529  0.49884148  0.53513714    -0.38600
O1397       O  0.93538274  0.13782224  0.60687197    -0.39300
O1398       O  0.02394405  0.12660968  0.61671811    -0.39400
C1399       C  0.57949876  0.35200284  0.95068714    -0.11700
C1400       C  0.53766298  0.34552897  0.96834420     0.05300
C1401       C  0.54204235  0.31641115  0.97698738    -0.06900
C1402       C  0.58587706  0.29427423  0.96573028    -0.07700
C1403       C  0.62636534  0.30080952  0.94720607    -0.02200
C1404       C  0.62414538  0.33001294  0.94038871     0.04600
N1405       N  0.66490904  0.33742088  0.92153851     0.67100
H1406       H  0.57519650  0.37416521  0.94301709     0.16000
H1407       H  0.58907316  0.27169711  0.97185055     0.15700
N1408       N  0.50214330  0.30919860  0.49680379     0.74800
O1409       O  0.67352778  0.32651708  0.89527637    -0.38300
O1410       O  0.68832605  0.35703333  0.92991118    -0.38600
O1411       O  0.49266616  0.28418936  0.49564387    -0.39300
O1412       O  0.47932089  0.32700775  0.51710703    -0.39400
C1413       C  0.88125865  0.33775013  0.96570895    -0.11700
C1414       C  0.92043276  0.34296032  0.94544551     0.05300
C1415       C  0.93889068  0.32313052  0.92154754    -0.06900
C1416       C  0.91695490  0.29862578  0.91809483    -0.07700
C1417       C  0.87697004  0.29351132  0.93819901    -0.02200
C1418       C  0.85991685  0.31321313  0.96256248     0.04600
N1419       N  0.82042452  0.30894143  0.98412489     0.67100
H1420       H  0.86791138  0.35266800  0.48454142     0.16000
H1421       H  0.93065473  0.28375826  0.89929558     0.15700
N1422       N  0.97904911  0.32778830  0.90048983     0.74800
O1423       O  0.83693302  0.29392710  0.50746904    -0.38700
O1424       O  0.77086182  0.32365969  0.98230382    -0.38600
O1425       O  0.51989722  0.30713440  0.89355765    -0.39300
O1426       O  0.97104586  0.35167206  0.88664029    -0.39400
C1427       C  0.55347095  0.41348993  0.55329186    -0.11700
C1428       C  0.50759312  0.42234575  0.57250562     0.05300
C1429       C  0.95608977  0.41772983  0.56289495    -0.06900
C1430       C  0.95051366  0.40672409  0.53394198    -0.07700
C1431       C  0.49453943  0.40101180  0.51350618    -0.02200
C1432       C  0.54716504  0.40323870  0.52367613     0.04600
N1433       N  0.59344695  0.39722719  0.50376691     0.67100
H1434       H  0.59325290  0.41684660  0.56029922     0.16000
H1435       H  0.91022316  0.40417963  0.52672814     0.15700
N1436       N  0.90803909  0.42545565  0.58158090     0.74800
O1437       O  0.59356762  0.41344427  0.48130687    -0.38700
O1438       O  0.63732376  0.37874618  0.51115444    -0.38600
O1439       O  0.87602937  0.45060411  0.57935025    -0.39300
O1440       O  0.89028204  0.40548957  0.59352496    -0.39400
N1441       N  0.48611065  0.86728349  0.47117507    -0.02900
C1442       C  0.48130119  0.89480756  0.98169880    -0.00300
C1443       C  0.93654962  0.91341166  0.96746516    -0.23200
C1444       C  0.91210690  0.89658819  0.94891731    -0.23400
C1445       C  0.94338423  0.86833479  0.45164865    -0.00400
H1446       H  0.91824359  0.93590850  0.97368927     0.13400
H1447       H  0.87235568  0.90364039  0.93762112     0.13400
N1448       N  0.54743238  0.62328183  0.52304984    -0.02900
C1449       C  0.55091938  0.60726181  0.04863447    -0.00300
C1450       C  0.60271278  0.60322762  0.06191116    -0.23200
C1451       C  0.63212619  0.61757729  0.54441065    -0.23400
C1452       C  0.59732205  0.62980440  0.52101782    -0.00400
H1453       H  0.61809799  0.59018628  0.08160533     0.13400
H1454       H  0.67434764  0.61896947  0.54824312     0.13400
O1455       O  0.85308527  0.75789573  0.40612267    -0.81200
C1456       C  0.69388927  0.70051049  0.44587610     0.98200
O1457       O  0.71344416  0.71845304  0.46123817    -0.70300
O1458       O  0.82187868  0.70258515  0.46294750    -0.73900
Al1459     Al  0.77078238  0.73787206  0.45284857     1.49000
C1460       C  0.86946838  0.69262166  0.45223566     0.93400
O1461       O  0.83107425  0.68575078  0.37805000    -0.80100
O1462       O  0.71704052  0.75964531  0.36747886    -0.73700
Al1463     Al  0.83760519  0.72239410  0.39382160     1.90100
O1464       O  0.74399997  0.70013493  0.36422750    -0.72700
O1465       O  0.66208534  0.75816594  0.41812971    -0.72600
O1466       O  0.69889445  0.69859978  0.41749702    -0.78300
O1467       O  0.71947547  0.77433275  0.44756241    -0.76500
O1468       O  0.77340947  0.72970116  0.41336661    -1.12600
O1469       O  0.82693071  0.75909626  0.45318844    -0.71800
C1470       C  0.85118020  0.76881146  0.43229087     0.98900
C1471       C  0.79062441  0.68219469  0.36249677     0.95300
Al1472     Al  0.71086414  0.72914986  0.39343410     1.55600
O1473       O  0.88150754  0.70090727  0.42652067    -0.76400
C1474       C  0.67175775  0.77687213  0.43666135     0.99500
C1475       C  0.75920655  0.76000989  0.35218480     0.94400
O1476       O  0.80604100  0.74294861  0.35794624    -0.81700
N1477       N  0.80187550  0.84366817  0.23722376    -0.02900
C1478       C  0.80724427  0.81652228  0.24878093    -0.00300
C1479       C  0.85949464  0.79908704  0.24292008    -0.23200
C1480       C  0.88847415  0.81612443  0.22890273    -0.23400
C1481       C  0.85276956  0.84336076  0.22623022    -0.00400
H1482       H  0.87707895  0.77747910  0.25173052     0.13400
H1483       H  0.93192479  0.80987020  0.22319659     0.13400
N1484       N  0.73484884  0.59550666  0.25093637    -0.02900
C1485       C  0.72472669  0.61576396  0.27354149    -0.00300
C1486       C  0.66856910  0.62830185  0.27554253    -0.23200
C1487       C  0.64299341  0.61491512  0.25407981    -0.23400
C1488       C  0.68431507  0.59464383  0.23951074    -0.00400
H1489       H  0.64819934  0.64437212  0.29205614     0.13400
H1490       H  0.59878733  0.61797524  0.25117449     0.13400
O1491       O  0.59533076  0.49978043  0.15726079    -0.81200
C1492       C  0.93733734  0.93872382  0.18580379     0.98200
O1493       O  0.96194863  0.95081057  0.20543521    -0.70300
O1494       O  0.56908782  0.93364080  0.20010801    -0.73900
Al1495     Al  0.51955310  0.97095763  0.20121975     1.49000
C1496       C  0.61346636  0.92587546  0.18561458     0.93400
O1497       O  0.55595214  0.93746061  0.11469104    -0.80100
O1498       O  0.95486598  0.51644899  0.12666640    -0.73700
Al1499     Al  0.57264153  0.96894585  0.13764300     1.90100
O1500       O  0.96923126  0.95992834  0.10705394    -0.72700
O1501       O  0.90701415  0.50383508  0.17563640    -0.72600
O1502       O  0.93327832  0.94652306  0.15853274    -0.78300
O1503       O  0.97032124  0.50802635  0.20879831    -0.76500
O1504       O  0.51313822  0.97365943  0.16094170    -1.12600
O1505       O  0.57874708  0.49032480  0.20442684    -0.71800
C1506       C  0.60022161  0.50382202  0.18530230     0.98900
C1507       C  0.51128744  0.94022770  0.09989760     0.95300
Al1508     Al  0.94657585  0.98106704  0.14350085     1.55600
O1509       O  0.62098352  0.94007175  0.16262815    -0.76400
C1510       C  0.92148756  0.51594246  0.19880101     0.99500
C1511       C  0.49318958  0.51752847  0.10864860     0.94400
O1512       O  0.53737826  0.49730514  0.10786490    -0.81700
C1513       C  0.82616309  0.56080690  0.25792189    -0.11700
C1514       C  0.78754308  0.57950777  0.23913648     0.05300
C1515       C  0.79771749  0.57959343  0.20769903    -0.06900
C1516       C  0.84285803  0.55919257  0.19541784    -0.07700
C1517       C  0.87952408  0.53929787  0.21381106    -0.02200
C1518       C  0.87209915  0.54069855  0.24547220     0.04600
N1519       N  0.90777491  0.02025585  0.26483460     0.67100
H1520       H  0.81860608  0.56047107  0.28198567     0.16000
H1521       H  0.84937315  0.55871763  0.17116599     0.15700
N1522       N  0.76227945  0.60015349  0.18796883     0.74800
O1523       O  0.94075108  0.02861583  0.28268797    -0.38700
O1524       O  0.90585538  0.99384338  0.26449748    -0.38600
O1525       O  0.74375385  0.62629736  0.19645824    -0.39300
O1526       O  0.75446368  0.59313567  0.16088606    -0.39400
C1527       C  0.61092037  0.55426903  0.18500860    -0.11700
C1528       C  0.62896048  0.52579169  0.19590294     0.05300
C1529       C  0.67114545  0.51945676  0.21806426    -0.06900
C1530       C  0.69296980  0.54189359  0.22996128    -0.07700
C1531       C  0.67220193  0.57084504  0.22058898    -0.02200
C1532       C  0.63153738  0.57686979  0.19740088     0.04600
N1533       N  0.60864502  0.60603486  0.18733541     0.67100
H1534       H  0.57853722  0.55927914  0.16786183     0.16000
H1535       H  0.72337855  0.53696514  0.24811170     0.15700
N1536       N  0.69169678  0.99046494  0.22881196     0.74800
O1537       O  0.63584875  0.61773718  0.16958454    -0.38700
O1538       O  0.55798848  0.61778606  0.19140992    -0.38600
O1539       O  0.73592054  0.97463313  0.21821054    -0.39300
O1540       O  0.66973219  0.98200633  0.25146581    -0.39400
C1541       C  0.87585272  0.91936928  0.21845438    -0.11700
C1542       C  0.91382125  0.91478056  0.19480178     0.05300
C1543       C  0.92938020  0.88730484  0.18025188    -0.06900
C1544       C  0.90643728  0.86483786  0.18992225    -0.07700
C1545       C  0.86995414  0.86895230  0.21446693    -0.02200
C1546       C  0.85411047  0.89669340  0.22860198     0.04600
N1547       N  0.82007144  0.90161567  0.25487339     0.67100
H1548       H  0.86435182  0.94047374  0.22971920     0.16000
H1549       H  0.91899804  0.84361733  0.17901924     0.15700
N1550       N  0.97097284  0.88132359  0.15717424     0.74800
O1551       O  0.77680731  0.92219746  0.25510956    -0.38700
O1552       O  0.83984365  0.89041532  0.27960992    -0.38600
O1553       O  0.51569203  0.88895636  0.16104874    -0.39300
O1554       O  0.96663894  0.86485452  0.13505361    -0.39400
C1555       C  0.65791707  0.89337275  0.22788704    -0.11700
C1556       C  0.65827525  0.90121869  0.19720639     0.05300
C1557       C  0.70415677  0.88739867  0.17941090    -0.06900
C1558       C  0.74953262  0.86803323  0.19304935    -0.07700
C1559       C  0.75128325  0.86193359  0.22429909    -0.02200
C1560       C  0.70369451  0.87413511  0.24157361     0.04600
N1561       N  0.70195955  0.86894103  0.27330452     0.67100
H1562       H  0.62306767  0.90359676  0.24198259     0.16000
H1563       H  0.78416805  0.85757530  0.17894983     0.15700
N1564       N  0.70537327  0.89247066  0.14748147     0.74800
O1565       O  0.73090267  0.88001652  0.29128794    -0.38700
O1566       O  0.66306338  0.85932119  0.28370832    -0.38600
O1567       O  0.74871887  0.89636933  0.13556528    -0.39300
O1568       O  0.66593726  0.88932533  0.13064286    -0.39400
C1569       C  0.76980215  0.63553410  0.34929169    -0.11700
C1570       C  0.79605706  0.65727007  0.34157002     0.05300
C1571       C  0.81256945  0.65918648  0.31137934    -0.06900
C1572       C  0.79560438  0.64203553  0.28871184    -0.07700
C1573       C  0.76415563  0.62234377  0.29616807    -0.02200
C1574       C  0.75497496  0.61759078  0.32698457     0.04600
N1575       N  0.72430952  0.59707784  0.33542780     0.67100
H1576       H  0.75691710  0.63399459  0.37248060     0.16000
H1577       H  0.80258453  0.64601505  0.26511139     0.15700
N1578       N  0.84180595  0.68038359  0.30319624     0.74800
O1579       O  0.74382867  0.57020834  0.33038766    -0.38700
O1580       O  0.67963207  0.60552189  0.34978493    -0.38600
O1581       O  0.89171481  0.67700087  0.31122129    -0.39300
O1582       O  0.81956421  0.70103301  0.28580882    -0.39400
C1583       C  0.78756139  0.80121379  0.33045696    -0.11700
C1584       C  0.75554916  0.78096832  0.32758686     0.05300
C1585       C  0.73010699  0.77754963  0.29960568    -0.06900
C1586       C  0.74333978  0.79161951  0.27390020    -0.07700
C1587       C  0.77954698  0.81004962  0.27625425    -0.02200
C1588       C  0.79978895  0.81586977  0.30523892     0.04600
N1589       N  0.83683492  0.83447681  0.30932217     0.67100
H1590       H  0.80687089  0.80394682  0.35208422     0.16000
H1591       H  0.72769357  0.78699513  0.25187051     0.15700
N1592       N  0.69369308  0.75856099  0.29674290     0.74800
O1593       O  0.82653365  0.85411253  0.32955140    -0.38700
O1594       O  0.88533060  0.82660372  0.29909187    -0.38600
O1595       O  0.64713285  0.76532425  0.30945019    -0.39300
O1596       O  0.70491821  0.73704916  0.27872421    -0.39400
C1597       C  0.65741016  0.63462178  0.47864630    -0.11700
C1598       C  0.61417223  0.64795842  0.49801763     0.05300
C1599       C  0.59360370  0.67849823  0.49789537    -0.06900
C1600       C  0.61911399  0.69520216  0.47962432    -0.07700
C1601       C  0.66456858  0.68193327  0.46164500    -0.02200
C1602       C  0.68284212  0.65127766  0.46029595     0.04600
N1603       N  0.72907080  0.63686624  0.44204358     0.67100
H1604       H  0.67329787  0.61107970  0.47896818     0.16000
H1605       H  0.60476515  0.71886561  0.48036925     0.15700
N1606       N  0.54943118  0.69287319  0.01738926     0.74800
O1607       O  0.77340471  0.64521506  0.44282117    -0.38700
O1608       O  0.72793309  0.61368318  0.42786711    -0.38600
O1609       O  0.55317170  0.68870637  0.04559803    -0.39300
O1610       O  0.50935838  0.71213774  0.00686425    -0.39400
C1611       C  0.95816163  0.65378500  0.45607525    -0.11700
C1612       C  0.91207204  0.67182147  0.47052179     0.05300
C1613       C  0.90821281  0.67008469  0.50243572    -0.06900
C1614       C  0.95123002  0.65191278  0.51903280    -0.07700
C1615       C  0.99878934  0.63540033  0.50476126    -0.02200
C1616       C  0.00096734  0.63517792  0.47272354     0.04600
N1617       N  0.04597741  0.61605262  0.45689711     0.67100
H1618       H  0.96069269  0.65404838  0.43160936     0.16000
H1619       H  0.94939196  0.65240897  0.04353177     0.15700
N1620       N  0.86318499  0.68831337  0.51874140     0.74800
O1621       O  0.06918199  0.59136710  0.46758782    -0.38700
O1622       O  0.55994333  0.62275250  0.43107824    -0.38600
O1623       O  0.83235836  0.67684019  0.03449136    -0.39300
O1624       O  0.85959535  0.71532667  0.52120454    -0.39400
C1625       C  0.51882773  0.56258158  0.04346027    -0.11700
C1626       C  0.51324569  0.58960052  0.05805309     0.05300
C1627       C  0.98867785  0.59422368  0.08690668    -0.06900
C1628       C  0.97551778  0.57093663  0.10194020    -0.07700
C1629       C  0.48827976  0.54292475  0.08888828    -0.02200
C1630       C  0.50679320  0.53914887  0.05871521     0.04600
N1631       N  0.51761990  0.01117609  0.04420490     0.67100
H1632       H  0.53807187  0.55880157  0.02140345     0.16000
H1633       H  0.96123236  0.57403721  0.12512087     0.15700
N1634       N  0.98305808  0.62140940  0.10259504     0.74800
O1635       O  0.47849997  0.99906685  0.03943284    -0.38700
O1636       O  0.56570479  0.99889650  0.03525006    -0.38600
O1637       O  0.93547799  0.63781026  0.10686491    -0.39300
O1638       O  0.02410295  0.62661790  0.11652801    -0.39400
C1639       C  0.57936200  0.85196751  0.45071025    -0.11700
C1640       C  0.53749659  0.84548935  0.46834105     0.05300
C1641       C  0.54183079  0.81636393  0.47694254    -0.06900
C1642       C  0.58565227  0.79422497  0.46567072    -0.07700
C1643       C  0.62617658  0.80076864  0.44717781    -0.02200
C1644       C  0.62399556  0.82997516  0.44040230     0.04600
N1645       N  0.66479170  0.83738668  0.42158167     0.67100
H1646       H  0.57510516  0.87413426  0.44307682     0.16000
H1647       H  0.58881814  0.77165071  0.47176015     0.15700
N1648       N  0.50192394  0.80913101  0.99674528     0.74800
O1649       O  0.67325609  0.82660195  0.39526286    -0.38300
O1650       O  0.68840336  0.85689101  0.43005047    -0.38600
O1651       O  0.49243299  0.78412576  0.99555728    -0.39300
O1652       O  0.47911986  0.82692069  0.01706915    -0.39400
C1653       C  0.88113083  0.83776200  0.46575314    -0.11700
C1654       C  0.92024966  0.84299601  0.44546767     0.05300
C1655       C  0.93862827  0.82320158  0.42153285    -0.06900
C1656       C  0.91668939  0.79870047  0.41807079    -0.07700
C1657       C  0.87677561  0.79355391  0.43820404    -0.02200
C1658       C  0.85978877  0.81322521  0.46260017     0.04600
N1659       N  0.82039032  0.80891368  0.48420003     0.67100
H1660       H  0.86784268  0.85264913  0.98462103     0.16000
H1661       H  0.93033736  0.78385964  0.39924420     0.15700
N1662       N  0.97871341  0.82789259  0.40044843     0.74800
O1663       O  0.83698809  0.79379056  0.00746927    -0.38700
O1664       O  0.77084999  0.82368400  0.48249774    -0.38600
O1665       O  0.51960589  0.80730093  0.39351403    -0.39300
O1666       O  0.97058058  0.85176590  0.38656941    -0.39400
C1667       C  0.55347212  0.91345743  0.05331727    -0.11700
C1668       C  0.50761892  0.92228801  0.07255166     0.05300
C1669       C  0.95618454  0.91759372  0.06298381    -0.06900
C1670       C  0.95059570  0.90657496  0.03403808    -0.07700
C1671       C  0.49452265  0.90092793  0.01357294    -0.02200
C1672       C  0.54714192  0.90319271  0.02371090     0.04600
N1673       N  0.59338644  0.89720623  0.00377727     0.67100
H1674       H  0.59324183  0.91684895  0.06029808     0.16000
H1675       H  0.91031981  0.90399115  0.02684668     0.15700
N1676       N  0.90816807  0.92527398  0.08169916     0.74800
O1677       O  0.59349939  0.91347416  0.98135897    -0.38700
O1678       O  0.63724808  0.87868572  0.01110789    -0.38600
O1679       O  0.87608122  0.95040321  0.07948383    -0.39300
O1680       O  0.89050497  0.90527890  0.09364908    -0.39400
N1681       N  0.48607999  0.86727343  0.97118933    -0.02900
C1682       C  0.48133025  0.89482065  0.48167495    -0.00300
C1683       C  0.93652034  0.91340971  0.46747506    -0.23200
C1684       C  0.91208069  0.89659100  0.44891974    -0.23400
C1685       C  0.94341211  0.86833307  0.95165192    -0.00400
H1686       H  0.91821517  0.93590552  0.47370346     0.13400
H1687       H  0.87233169  0.90364639  0.43762191     0.13400
N1688       N  0.54743423  0.62326785  0.02303053    -0.02900
C1689       C  0.55090954  0.60727774  0.54865459    -0.00300
C1690       C  0.60269722  0.60324688  0.56193748    -0.23200
C1691       C  0.63213674  0.61755872  0.04438207    -0.23400
C1692       C  0.59732442  0.62978896  0.02099376    -0.00400
H1693       H  0.61807695  0.59020658  0.58163309     0.13400
H1694       H  0.67435928  0.61895052  0.04821087     0.13400
O1695       O  0.85309338  0.75790009  0.90613633    -0.81200
C1696       C  0.69388948  0.70051296  0.94587461     0.98200
O1697       O  0.71344262  0.71845397  0.96124094    -0.70300
O1698       O  0.82187742  0.70258842  0.96295308    -0.73900
Al1699     Al  0.77078090  0.73787601  0.95285680     1.49000
C1700       C  0.86946569  0.69262313  0.95224020     0.93400
O1701       O  0.83106959  0.68576094  0.87805432    -0.80100
O1702       O  0.71704353  0.75966231  0.86749303    -0.73700
Al1703     Al  0.83760564  0.72240209  0.89382995     1.90100
O1704       O  0.74400076  0.70015177  0.86422503    -0.72700
O1705       O  0.66208434  0.75817106  0.91814004    -0.72600
O1706       O  0.69889638  0.69860667  0.91749530    -0.78300
O1707       O  0.71947223  0.77433777  0.94757398    -0.76500
O1708       O  0.77340987  0.72970904  0.91337424    -1.12600
O1709       O  0.82692996  0.75910077  0.95320037    -0.71800
C1710       C  0.85119081  0.76881324  0.93230567     0.98900
C1711       C  0.79062316  0.68220932  0.86249537     0.95300
Al1712     Al  0.71086529  0.72916115  0.89343939     1.55600
O1713       O  0.88150539  0.70091033  0.92652619    -0.76400
C1714       C  0.67175356  0.77687572  0.93667452     0.99500
C1715       C  0.75920923  0.76002714  0.85219875     0.94400
O1716       O  0.80604236  0.74296270  0.85795701    -0.81700
N1717       N  0.80188502  0.84367502  0.73723147    -0.02900
C1718       C  0.80725547  0.81653017  0.74879146    -0.00300
C1719       C  0.85950473  0.79909411  0.74293004    -0.23200
C1720       C  0.88848323  0.81613033  0.72891021    -0.23400
C1721       C  0.85277851  0.84336652  0.72623638    -0.00400
H1722       H  0.87708965  0.77748692  0.75174219     0.13400
H1723       H  0.93193376  0.80987564  0.72320387     0.13400
N1724       N  0.73485382  0.59550157  0.75094542    -0.02900
C1725       C  0.72472889  0.61575521  0.77355461    -0.00300
C1726       C  0.66856986  0.62828572  0.77556245    -0.23200
C1727       C  0.64299521  0.61489870  0.75409981    -0.23400
C1728       C  0.68431900  0.59463451  0.73952390    -0.00400
H1729       H  0.64819983  0.64435398  0.79207790     0.13400
H1730       H  0.59878940  0.61795560  0.75119645     0.13400
O1731       O  0.59533422  0.49978258  0.65725383    -0.81200
C1732       C  0.93734346  0.93872825  0.68580635     0.98200
O1733       O  0.96195494  0.95081680  0.70543583    -0.70300
O1734       O  0.56907924  0.93363018  0.70010557    -0.73900
Al1735     Al  0.51954215  0.97094694  0.70121766     1.49000
C1736       C  0.61346016  0.92586645  0.68561393     0.93400
O1737       O  0.55595129  0.93745693  0.61468483    -0.80100
O1738       O  0.95487331  0.51644389  0.62666445    -0.73700
Al1739     Al  0.57263947  0.96893915  0.63764331     1.90100
O1740       O  0.96922380  0.95992961  0.60705303    -0.72700
O1741       O  0.90700976  0.50382983  0.67563125    -0.72600
O1742       O  0.93328247  0.94652528  0.65853463    -0.78300
O1743       O  0.97031341  0.50801602  0.70879688    -0.76500
O1744       O  0.51313257  0.97365184  0.66093951    -1.12600
O1745       O  0.57876008  0.49032422  0.70442056    -0.71800
C1746       C  0.60023183  0.50382188  0.68529532     0.98900
C1747       C  0.51128913  0.94022866  0.59988766     0.95300
Al1748     Al  0.94657627  0.98106898  0.64350026     1.55600
O1749       O  0.62097740  0.94006289  0.66262769    -0.76400
C1750       C  0.92148096  0.51593449  0.69879841     0.99500
C1751       C  0.49318523  0.51753094  0.60864639     0.94400
O1752       O  0.53737356  0.49730729  0.60786019    -0.81700
C1753       C  0.82617506  0.56080572  0.75792531    -0.11700
C1754       C  0.78754815  0.57950522  0.73914209     0.05300
C1755       C  0.79771155  0.57958721  0.70770317    -0.06900
C1756       C  0.84284545  0.55918365  0.69541893    -0.07700
C1757       C  0.87951752  0.53928977  0.71381033    -0.02200
C1758       C  0.87210483  0.54069449  0.74547266     0.04600
N1759       N  0.90777140  0.02024024  0.76483101     0.67100
H1760       H  0.81862684  0.56047224  0.78199018     0.16000
H1761       H  0.84935140  0.55870673  0.67116622     0.15700
N1762       N  0.76226843  0.60014661  0.68797464     0.74800
O1763       O  0.94078047  0.02858892  0.78267169    -0.38700
O1764       O  0.90583028  0.99383102  0.76449408    -0.38600
O1765       O  0.74375007  0.62629140  0.69646281    -0.39300
O1766       O  0.75443745  0.59312653  0.66089449    -0.39400
C1767       C  0.61090983  0.55427199  0.68501748    -0.11700
C1768       C  0.62897265  0.52579023  0.69589610     0.05300
C1769       C  0.67117772  0.51944968  0.71804572    -0.06900
C1770       C  0.69299894  0.54188546  0.72994829    -0.07700
C1771       C  0.67220958  0.57084069  0.72059248    -0.02200
C1772       C  0.63152556  0.57687125  0.69741434     0.04600
N1773       N  0.60861130  0.60604007  0.68736509     0.67100
H1774       H  0.57851120  0.55928582  0.66787957     0.16000
H1775       H  0.72342168  0.53695217  0.74809142     0.15700
N1776       N  0.69167613  0.99045818  0.72882607     0.74800
O1777       O  0.63583618  0.61777726  0.66966088    -0.38700
O1778       O  0.55793854  0.61776943  0.69141487    -0.38600
O1779       O  0.73591627  0.97462845  0.71824063    -0.39300
O1780       O  0.66968641  0.98199973  0.75147079    -0.39400
C1781       C  0.87585711  0.91937531  0.71845719    -0.11700
C1782       C  0.91383058  0.91478513  0.69480703     0.05300
C1783       C  0.92939838  0.88730783  0.68026153    -0.06900
C1784       C  0.90645398  0.86484129  0.68993087    -0.07700
C1785       C  0.86996387  0.86895737  0.71447251    -0.02200
C1786       C  0.85411667  0.89669921  0.72860573     0.04600
N1787       N  0.82007897  0.90162142  0.75487760     0.67100
H1788       H  0.86435195  0.94048077  0.72971975     0.16000
H1789       H  0.91902014  0.84361985  0.67903021     0.15700
N1790       N  0.97100338  0.88132475  0.65719075     0.74800
O1791       O  0.77680816  0.92219898  0.75511185    -0.38700
O1792       O  0.83985678  0.89042648  0.77961539    -0.38600
O1793       O  0.51564772  0.88895329  0.66100963    -0.39300
O1794       O  0.96667687  0.86485774  0.63506711    -0.39400
C1795       C  0.65791726  0.89337019  0.72789006    -0.11700
C1796       C  0.65827298  0.90121259  0.69720823     0.05300
C1797       C  0.70415779  0.88739424  0.67941424    -0.06900
C1798       C  0.74953892  0.86803451  0.69305508    -0.07700
C1799       C  0.75129108  0.86193822  0.72430566    -0.02200
C1800       C  0.70369963  0.87413811  0.74157919     0.04600
N1801       N  0.70196633  0.86894850  0.77331132     0.67100
H1802       H  0.62306584  0.90359362  0.74198448     0.16000
H1803       H  0.78417644  0.85757758  0.67895653     0.15700
N1804       N  0.70537166  0.89246167  0.64748372     0.74800
O1805       O  0.73093822  0.88001009  0.79129040    -0.38700
O1806       O  0.66305641  0.85934368  0.78372108    -0.38600
O1807       O  0.74871562  0.89635943  0.63556477    -0.39300
O1808       O  0.66593443  0.88931386  0.63064744    -0.39400
C1809       C  0.76984966  0.63553542  0.84929298    -0.11700
C1810       C  0.79605984  0.65728727  0.84156381     0.05300
C1811       C  0.81252258  0.65922001  0.81136590    -0.06900
C1812       C  0.79555974  0.64206207  0.78870413    -0.07700
C1813       C  0.76416137  0.62234955  0.79617025    -0.02200
C1814       C  0.75502090  0.61758846  0.82698991     0.04600
N1815       N  0.72438901  0.59706346  0.83544254     0.67100
H1816       H  0.75699586  0.63398599  0.87248697     0.16000
H1817       H  0.80250482  0.64604868  0.76510047     0.15700
N1818       N  0.84171005  0.68043654  0.80317306     0.74800
O1819       O  0.74395635  0.57019344  0.83042833    -0.38700
O1820       O  0.67969794  0.60549919  0.84978901    -0.38600
O1821       O  0.89153973  0.67715006  0.81131120    -0.39300
O1822       O  0.81952358  0.70100423  0.78567729    -0.39400
C1823       C  0.78757710  0.80122655  0.83046959    -0.11700
C1824       C  0.75555139  0.78098712  0.82760209     0.05300
C1825       C  0.73010267  0.77757072  0.79962181    -0.06900
C1826       C  0.74334267  0.79163649  0.77391499    -0.07700
C1827       C  0.77956110  0.81006034  0.77626673    -0.02200
C1828       C  0.79981108  0.81587830  0.80525006     0.04600
N1829       N  0.83686975  0.83447895  0.80933033     0.67100
H1830       H  0.80689270  0.80395704  0.85209571     0.16000
H1831       H  0.72769024  0.78701501  0.75188591     0.15700
N1832       N  0.69367616  0.75858780  0.79676113     0.74800
O1833       O  0.82657729  0.85411770  0.82955662    -0.38700
O1834       O  0.88536541  0.82659738  0.79910131    -0.38600
O1835       O  0.64718669  0.76531299  0.80954638    -0.39300
O1836       O  0.70480611  0.73712505  0.77867712    -0.39400
C1837       C  0.65738594  0.63461663  0.97861339    -0.11700
C1838       C  0.61416511  0.64794886  0.99799651     0.05300
C1839       C  0.59361367  0.67848985  0.99789265    -0.06900
C1840       C  0.61912752  0.69519791  0.97962958    -0.07700
C1841       C  0.66456701  0.68193289  0.96163827    -0.02200
C1842       C  0.68281994  0.65127649  0.96026913     0.04600
N1843       N  0.72902972  0.63686719  0.94200233     0.67100
H1844       H  0.67326145  0.61107245  0.97892171     0.16000
H1845       H  0.60479067  0.71886411  0.98038973     0.15700
N1846       N  0.54940609  0.69288681  0.51738070     0.74800
O1847       O  0.77336667  0.64521338  0.94276807    -0.38700
O1848       O  0.72787525  0.61368693  0.92782487    -0.38600
O1849       O  0.55311812  0.68872060  0.54559000    -0.39300
O1850       O  0.50934918  0.71215490  0.50684640    -0.39400
C1851       C  0.95818170  0.65380182  0.95608001    -0.11700
C1852       C  0.91206844  0.67181987  0.97052433     0.05300
C1853       C  0.90818932  0.67006517  0.00243528    -0.06900
C1854       C  0.95121112  0.65189858  0.01903348    -0.07700
C1855       C  0.99879355  0.63540601  0.00476589    -0.02200
C1856       C  0.00099116  0.63519792  0.97272877     0.04600
N1857       N  0.04602566  0.61609110  0.95690299     0.67100
H1858       H  0.96073006  0.65407767  0.93161536     0.16000
H1859       H  0.94943001  0.65243454  0.54353171     0.15700
N1860       N  0.86313117  0.68827006  0.01873862     0.74800
O1861       O  0.06924076  0.59140200  0.96758189    -0.38700
O1862       O  0.55992311  0.62273209  0.93105670    -0.38600
O1863       O  0.83246076  0.67690658  0.53455484    -0.39300
O1864       O  0.85954598  0.71527886  0.02125867    -0.39400
C1865       C  0.51883030  0.56259433  0.54346848    -0.11700
C1866       C  0.51323889  0.58961186  0.55806573     0.05300
C1867       C  0.98869720  0.59421495  0.58690072    -0.06900
C1868       C  0.97553530  0.57092952  0.60193659    -0.07700
C1869       C  0.48827371  0.54292971  0.58888930    -0.02200
C1870       C  0.50679409  0.53915840  0.55871718     0.04600
N1871       N  0.51762332  0.01116434  0.54420793     0.67100
H1872       H  0.53807945  0.55881871  0.52141275     0.16000
H1873       H  0.96125223  0.57403172  0.62511761     0.15700
N1874       N  0.98308455  0.62140091  0.60258781     0.74800
O1875       O  0.47848876  0.99907515  0.53939382    -0.38700
O1876       O  0.56572768  0.99886388  0.53529776    -0.38600
O1877       O  0.93550499  0.63779507  0.60687698    -0.39300
O1878       O  0.02414281  0.62661537  0.61650198    -0.39400
C1879       C  0.57935053  0.85196370  0.95074822    -0.11700
C1880       C  0.53746426  0.84547760  0.96835560     0.05300
C1881       C  0.54178637  0.81634675  0.97693548    -0.06900
C1882       C  0.58561706  0.79421376  0.96566288    -0.07700
C1883       C  0.62616675  0.80076683  0.94719619    -0.02200
C1884       C  0.62399870  0.82997740  0.94044748     0.04600
N1885       N  0.66482619  0.83739926  0.92165969     0.67100
H1886       H  0.57510404  0.87413505  0.94312766     0.16000
H1887       H  0.58877156  0.77163301  0.97173334     0.15700
N1888       N  0.50198854  0.80915853  0.49677373     0.74800
O1889       O  0.67325561  0.82667472  0.89531470    -0.38300
O1890       O  0.68850389  0.85685808  0.93018872    -0.38600
O1891       O  0.49249525  0.78415335  0.49560740    -0.39300
O1892       O  0.47920501  0.82695878  0.51709377    -0.39400
C1893       C  0.88119063  0.83774935  0.96577885    -0.11700
C1894       C  0.92028047  0.84299180  0.94547947     0.05300
C1895       C  0.93863387  0.82320396  0.92153644    -0.06900
C1896       C  0.91669209  0.79870386  0.91807668    -0.07700
C1897       C  0.87680238  0.79354996  0.93822197    -0.02200
C1898       C  0.85985063  0.81321108  0.96263053     0.04600
N1899       N  0.82049733  0.80888538  0.98425081     0.67100
H1900       H  0.86775866  0.85266825  0.48458740     0.16000
H1901       H  0.93031777  0.78387023  0.89924173     0.15700
N1902       N  0.97869685  0.82790064  0.90044138     0.74800
O1903       O  0.83683792  0.79386534  0.50745386    -0.38700
O1904       O  0.77097186  0.82368639  0.98260899    -0.38600
O1905       O  0.51960657  0.80729271  0.89352548    -0.39300
O1906       O  0.97053266  0.85177063  0.88655384    -0.39400
C1907       C  0.55348155  0.91347161  0.55330061    -0.11700
C1908       C  0.50762463  0.92229773  0.57253389     0.05300
C1909       C  0.95616482  0.91759110  0.56299167    -0.06900
C1910       C  0.95057020  0.90657078  0.53404722    -0.07700
C1911       C  0.49454009  0.90094782  0.51354884    -0.02200
C1912       C  0.54715698  0.90321162  0.52369121     0.04600
N1913       N  0.59340546  0.89722526  0.50375989     0.67100
H1914       H  0.59325029  0.91686128  0.56028596     0.16000
H1915       H  0.91029082  0.90399118  0.52685710     0.15700
N1916       N  0.90815100  0.92527735  0.58170842     0.74800
O1917       O  0.59351170  0.91348345  0.48133260    -0.38700
O1918       O  0.63726691  0.87870522  0.51109163    -0.38600
O1919       O  0.87605590  0.95040323  0.57948155    -0.39300
O1920       O  0.89050389  0.90528708  0.59367963    -0.39400
loop_ 
_geom_bond_atom_site_label_1 
_geom_bond_atom_site_label_2 
_geom_bond_distance 
_geom_bond_site_symmetry_2 
_ccdc_geom_bond_type 
N1          C200   1.438   1_655  S
N1          C965   1.354       .  A
N1          C242   1.355       .  A
C2          N241   1.355       .  A
C2          C231   1.483   1_556  S
C2          C963   1.388       .  A
C3            C4   1.374       .  A
C3          C962   1.388       .  A
C3            H6   1.083       .  S
C4          C245   1.377       .  A
C4            H7   1.082       .  S
C5          N961   1.354       .  A
C5          C214   1.475       .  S
C5          C244   1.377       .  A
N8         C1135   1.447   1_455  S
N8           C12   1.358       .  A
N8          C249   1.358       .  A
C9          N248   1.358       .  A
C9          C186   1.470       .  S
C9           C10   1.382       .  A
C10         C251   1.368       .  A
C10          H13   1.083       .  S
C11          C12   1.378       .  A
C11         C250   1.368       .  A
C11          H14   1.082       .  S
C12         C158   1.468       .  S
O15          C30   1.256       .  A
O15         Al23   1.887       .  S
C16         C161   1.462       .  S
C16          O26   1.261       .  A
C16          O17   1.265       .  A
O17         Al19   1.923       .  S
O18          C20   1.259       .  A
O18         Al19   1.887       .  S
Al19         O27   1.891       .  S
Al19         O29   1.914       .  S
Al19         O28   1.780       .  S
C20         C172   1.494       .  S
C20          O33   1.269       .  A
O21          C31   1.258       .  A
O21         Al23   1.904       .  S
O22          C35   1.260       .  A
O22         Al32   1.890       .  S
Al23         O36   1.924       .  S
Al23         O33   1.940       .  S
Al23         O28   1.783       .  S
O24          C31   1.261       .  A
O24         Al32   1.911       .  S
O25          C34   1.263       .  A
O25         Al32   1.929       .  S
O26         Al32   1.889       .  S
O27          C34   1.257       .  A
O28         Al32   1.787       .  S
O29          C30   1.261       .  A
C30         C217   1.485       .  S
C31         C130   1.470       .  S
C34         C203   1.466       .  S
C35         C144   1.467       .  S
C35          O36   1.269       .  A
N37         C119   1.456       .  S
N37          C41   1.361       .  A
N37          C38   1.363       .  A
C38         C147   1.475       .  S
C38          C39   1.384       .  A
C39          C40   1.366       .  A
C39          H42   1.083       .  S
C40          C41   1.379       .  A
C40          H43   1.082       .  S
C41         C105   1.482       .  S
N44          C74   1.444       .  S
N44          C48   1.362       .  A
N44          C45   1.357       .  A
C45         C133   1.477       .  S
C45          C46   1.383       .  A
C46          C47   1.370       .  A
C46          H49   1.083       .  S
C47          C48   1.381       .  A
C47          H50   1.082       .  S
C48          C91   1.482       .  S
O51          C66   1.260   1_565  A
O51        Al539   1.888       .  S
C52         C102   1.460       .  S
C52          O62   1.259       .  A
C52          O53   1.266       .  A
O53       Al1015   1.922       .  S
O54          C56   1.257       .  A
O54         Al55   1.888       .  S
Al55       O1013   1.922   1_455  S
Al55       O1503   1.905   1_455  S
Al55        O545   1.923       .  S
Al55         O64   1.787       .  S
C56         C116   1.492       .  S
C56          O69   1.265       .  A
O57          C67   1.264       .  A
O57         Al59   1.918       .  S
O58        C1031   1.262       .  A
O58        Al548   1.898   1_545  S
Al59         O69   1.931       .  S
Al59        O531   1.888       .  S
Al59        O552   1.933       .  S
Al59         O64   1.782       .  S
O60        C1027   1.260       .  A
O60         Al68   1.900       .  S
O61          C70   1.258       .  A
O61        Al548   1.901   1_545  S
O62         Al68   1.876       .  S
O63          C70   1.258       .  A
O63       Al1495   1.905   1_545  S
O64       Al1028   1.777   1_455  S
O65          C66   1.265   1_565  A
O65        Al535   1.923       .  S
C66          C88   1.470       .  S
C67         C228   1.482       .  S
C67        O1020   1.260   1_455  A
Al68        O538   1.898       .  S
Al68        O541   1.901       .  S
Al68       O1024   1.777       .  S
C70          C77   1.477       .  S
C71         C189   1.473       .  S
C71          O72   1.269   1_645  A
C71        O1018   1.262       .  A
O72        Al539   1.933       .  S
C73          C74   1.406       .  A
C73          C78   1.408       .  A
C73          H80   1.082       .  S
C74          C75   1.414       .  A
C75          N82   1.436       .  S
C75          C76   1.399       .  A
C76          C77   1.399       .  A
C76          H81   1.084       .  S
C77          C78   1.411       .  A
C78         N559   1.430       .  S
N79         C558   1.430       .  S
N79          O83   1.262       .  A
N79          O84   1.262       .  A
N82          O86   1.263       .  A
N82          O85   1.262       .  A
C87          C88   1.400       .  A
C87          C92   1.399       .  A
C87          H94   1.085       .  S
C88          C89   1.407       .  A
C89         N576   1.428   1_545  S
C89          C90   1.401       .  A
C90          C91   1.405       .  A
C90          H95   1.084       .  S
C91          C92   1.413       .  A
C92          N93   1.431       .  S
N93          O97   1.261       .  A
N93          O98   1.262       .  A
N96         C569   1.428       .  S
N96         O100   1.262       .  A
N96          O99   1.262       .  A
C101        C102   1.397       .  A
C101        C106   1.397       .  A
C101        H108   1.084       .  S
C102        C103   1.410       .  A
C103        N110   1.438       .  S
C103        C104   1.399       .  A
C104        C105   1.404       .  A
C104        H109   1.084       .  S
C105        C106   1.413       .  A
C106        N107   1.428       .  S
N107        O111   1.262       .  A
N107        O112   1.260       .  A
N110        O114   1.262       .  A
N110       O1073   1.263       .  A
O113       N1070   1.263   1_455  A
C115        C116   1.410       .  A
C115        C120   1.407       .  A
C115        H122   1.084       .  S
C116        C117   1.412       .  A
C117        N124   1.435       .  S
C117        C118   1.402       .  A
C118        C119   1.411       .  A
C118        H123   1.083       .  S
C119        C120   1.413       .  A
C120        N121   1.429       .  S
N121        O125   1.261       .  A
N121        O126   1.262       .  A
N124        O128   1.263       .  A
N124        O127   1.263       .  A
C129        C130   1.396       .  A
C129        C134   1.398       .  A
C129        H136   1.085       .  S
C130        C131   1.411       .  A
C131        N138   1.430       .  S
C131        C132   1.407       .  A
C132        C133   1.402       .  A
C132        H137   1.085       .  S
C133        C134   1.413       .  A
C134        N135   1.431       .  S
N135        O139   1.262       .  A
N135        O140   1.262       .  A
N138        O142   1.262       .  A
N138        O141   1.262       .  A
C143        C144   1.394       .  A
C143        C148   1.395       .  A
C143        H150   1.085       .  S
C144        C145   1.408       .  A
C145        N152   1.430       .  S
C145        C146   1.406       .  A
C146        C147   1.404       .  A
C146        H151   1.084       .  S
C147        C148   1.419       .  A
C148        N149   1.434       .  S
N149        O153   1.263       .  A
N149        O154   1.262       .  A
N152        O156   1.262       .  A
N152        O155   1.262       .  A
C157        C158   1.402       .  A
C157        C162   1.398       .  A
C157        H164   1.086       .  S
C158        C159   1.409       .  A
C159        N406   1.434       .  S
C159        C160   1.399       .  A
C160        C161   1.402       .  A
C160        H165   1.088       .  S
C161        C162   1.409       .  A
C162        N163   1.436       .  S
N163        O167   1.263       .  A
N163        O168   1.262       .  A
N166        C399   1.434   1_554  S
N166        O170   1.262       .  A
N166        O169   1.262       .  A
C171        C172   1.405       .  A
C171        C176   1.410       .  A
C171        H178   1.083       .  S
C172        C173   1.418       .  A
C173        N180   1.431       .  S
C173        C174   1.402       .  A
C174        C175   1.400       .  A
C174        H419   1.083       .  S
C175        N968   1.447       .  S
C175        C176   1.416       .  A
C176        N177   1.438       .  S
N177        O181   1.263       .  A
N177       O1142   1.263       .  A
H179        C414   1.083       .  S
N180        O184   1.262       .  A
N180        O423   1.262       .  A
O182       N1137   1.263       .  A
O183        N420   1.262       .  A
C185        C186   1.401       .  A
C185        C190   1.400       .  A
C185        H192   1.084       .  S
C186       C1147   1.410   1_455  A
C187        N194   1.430       .  S
C187        C188   1.402       .  A
C187       C1146   1.410       .  A
C188       C1149   1.402       .  A
C188        H193   1.084       .  S
C189        C190   1.410   1_655  A
C189       C1148   1.402       .  A
C190        N671   1.432       .  S
N191        C670   1.432       .  S
N191        O195   1.262   1_455  A
N191        O196   1.262       .  A
N194        O198   1.262       .  A
N194        O197   1.262       .  A
C199        C200   1.405       .  A
C199        C204   1.399       .  A
C199        H206   1.085       .  S
C200        C201   1.412       .  A
C201        N448   1.437       .  S
C201        C202   1.405       .  A
C202        C203   1.402       .  A
C202        H207   1.088       .  S
C203        C204   1.405       .  A
C204        N205   1.433       .  S
N205        O209   1.262       .  A
N205        O210   1.262       .  A
N208        C441   1.437       .  S
N208        O212   1.263   1_456  A
N208        O211   1.263   1_455  A
C213        C214   1.400       .  A
C213        C218   1.396       .  A
C213        H460   1.084       .  S
C214        C215   1.407       .  A
C215        N222   1.433       .  S
C215        C216   1.405       .  A
C216        C217   1.410       .  A
C216        H221   1.084       .  S
C217        C218   1.413       .  A
C218        N219   1.429       .  S
N219        O463   1.262       .  A
N219        O224   1.262       .  A
H220        C453   1.084       .  S
N222        O226   1.262       .  A
N222       O1185   1.262       .  A
O223        N459   1.262   1_554  A
O225       N1182   1.262   1_455  A
C227        C228   1.408       .  A
C227        C232   1.410       .  A
C227        H234   1.084       .  S
C228       C1189   1.414   1_455  A
C229        N236   1.432       .  S
C229        C230   1.393       .  A
C229       C1188   1.414       .  A
C230       C1191   1.402       .  A
C230        H235   1.085       .  S
C231        C232   1.410   1_655  A
C231       C1190   1.402       .  A
C232        N233   1.429       .  S
N233        O237   1.262   1_554  A
N233        O238   1.262       .  A
N236        O240   1.262       .  A
N236        O239   1.262       .  A
N241        C440   1.438   1_655  S
N241       C1205   1.354       .  A
C242        C471   1.483       .  S
C242       C1203   1.388       .  A
C243       C1202   1.388       .  A
C243        C244   1.374       .  A
C243        H246   1.083       .  S
C244        H247   1.082       .  S
C245       N1201   1.354       .  A
C245        C454   1.475       .  S
N248       C1375   1.447   1_455  S
N248        C252   1.358       .  A
C249        C426   1.470       .  S
C249        C250   1.382       .  A
C250        H253   1.083       .  S
C251        C252   1.378       .  A
C251        H254   1.082       .  S
C252        C398   1.468   1_554  S
O255        C270   1.256       .  A
O255       Al263   1.887       .  S
C256        C401   1.462       .  S
C256        O266   1.261       .  A
C256        O257   1.265       .  A
O257       Al259   1.923       .  S
O258        C260   1.259       .  A
O258       Al259   1.887       .  S
Al259       O267   1.891       .  S
Al259       O269   1.914       .  S
Al259       O268   1.780       .  S
C260        C412   1.494       .  S
C260        O273   1.269       .  A
O261        C271   1.258       .  A
O261       Al263   1.904       .  S
O262        C275   1.260       .  A
O262       Al272   1.890       .  S
Al263       O276   1.924       .  S
Al263       O273   1.940       .  S
Al263       O268   1.783       .  S
O264        C271   1.261       .  A
O264       Al272   1.911       .  S
O265        C274   1.263       .  A
O265       Al272   1.929       .  S
O266       Al272   1.889       .  S
O267        C274   1.257       .  A
O268       Al272   1.787       .  S
O269        C270   1.261       .  A
C270        C457   1.485       .  S
C271        C370   1.470       .  S
C274        C443   1.466       .  S
C275        C384   1.467       .  S
C275        O276   1.269       .  A
N277        C359   1.456       .  S
N277        C281   1.361       .  A
N277        C278   1.363       .  A
C278        C387   1.475       .  S
C278        C279   1.384       .  A
C279        C280   1.366       .  A
C279        H282   1.083       .  S
C280        C281   1.379       .  A
C280        H283   1.082       .  S
C281        C345   1.482       .  S
N284        C314   1.444       .  S
N284        C288   1.362       .  A
N284        C285   1.357       .  A
C285        C373   1.477       .  S
C285        C286   1.383       .  A
C286        C287   1.370       .  A
C286        H289   1.083       .  S
C287        C288   1.381       .  A
C287        H290   1.082       .  S
C288        C331   1.482       .  S
O291        C306   1.260   1_565  A
O291       Al779   1.888       .  S
C292        C342   1.460       .  S
C292        O302   1.259       .  A
C292        O293   1.266       .  A
O293      Al1255   1.922       .  S
O294        C296   1.257       .  A
O294       Al295   1.888       .  S
Al295      O1253   1.922   1_455  S
Al295      O1743   1.905   1_455  S
Al295       O785   1.923       .  S
Al295       O304   1.787       .  S
C296        C356   1.492       .  S
C296        O309   1.265       .  A
O297        C307   1.264       .  A
O297       Al299   1.918       .  S
O298       C1271   1.262       .  A
O298       Al788   1.898   1_545  S
Al299       O771   1.888       .  S
Al299       O792   1.933       .  S
Al299       O309   1.931       .  S
Al299       O304   1.782       .  S
O300       C1267   1.260       .  A
O300       Al308   1.900       .  S
O301        C310   1.258       .  A
O301       Al788   1.901   1_545  S
O302       Al308   1.876       .  S
O303        C310   1.258       .  A
O303      Al1735   1.905   1_545  S
O304      Al1268   1.777   1_455  S
O305        C306   1.265   1_565  A
O305       Al775   1.923       .  S
C306        C328   1.470       .  S
C307        C468   1.482       .  S
C307       O1260   1.260   1_455  A
Al308       O778   1.898       .  S
Al308       O781   1.901       .  S
Al308      O1264   1.777       .  S
C310        C317   1.477       .  S
C311        C429   1.473       .  S
C311       O1258   1.262       .  A
C311        O312   1.269   1_645  A
O312       Al779   1.933       .  S
C313        C314   1.406       .  A
C313        C318   1.408       .  A
C313        H320   1.082       .  S
C314        C315   1.414       .  A
C315        N322   1.436       .  S
C315        C316   1.399       .  A
C316        C317   1.399       .  A
C316        H321   1.084       .  S
C317        C318   1.411       .  A
C318        N799   1.430       .  S
N319        C798   1.430       .  S
N319        O323   1.262       .  A
N319        O324   1.262       .  A
N322        O326   1.263       .  A
N322        O325   1.262       .  A
C327        C328   1.400       .  A
C327        C332   1.399       .  A
C327        H334   1.085       .  S
C328        C329   1.407       .  A
C329        N816   1.428   1_545  S
C329        C330   1.401       .  A
C330        C331   1.405       .  A
C330        H335   1.084       .  S
C331        C332   1.413       .  A
C332        N333   1.431       .  S
N333        O337   1.261       .  A
N333        O338   1.262       .  A
N336        C809   1.428       .  S
N336        O340   1.262       .  A
N336        O339   1.261       .  A
C341        C342   1.397       .  A
C341        C346   1.397       .  A
C341        H348   1.084       .  S
C342        C343   1.410       .  A
C343        N350   1.438       .  S
C343        C344   1.399       .  A
C344        C345   1.404       .  A
C344        H349   1.084       .  S
C345        C346   1.413       .  A
C346        N347   1.428       .  S
N347        O351   1.262       .  A
N347        O352   1.261       .  A
N350        O354   1.262       .  A
N350       O1313   1.263       .  A
O353       N1310   1.263   1_455  A
C355        C356   1.410       .  A
C355        C360   1.407       .  A
C355        H362   1.084       .  S
C356        C357   1.412       .  A
C357        N364   1.435       .  S
C357        C358   1.402       .  A
C358        C359   1.411       .  A
C358        H363   1.083       .  S
C359        C360   1.413       .  A
C360        N361   1.429       .  S
N361        O365   1.261       .  A
N361        O366   1.262       .  A
N364        O368   1.263       .  A
N364        O367   1.263       .  A
C369        C370   1.396       .  A
C369        C374   1.398       .  A
C369        H376   1.085       .  S
C370        C371   1.411       .  A
C371        N378   1.430       .  S
C371        C372   1.407       .  A
C372        C373   1.402       .  A
C372        H377   1.085       .  S
C373        C374   1.413       .  A
C374        N375   1.431       .  S
N375        O379   1.262       .  A
N375        O380   1.262       .  A
N378        O382   1.262       .  A
N378        O381   1.262       .  A
C383        C384   1.394       .  A
C383        C388   1.395       .  A
C383        H390   1.085       .  S
C384        C385   1.408       .  A
C385        N392   1.430       .  S
C385        C386   1.406       .  A
C386        C387   1.404       .  A
C386        H391   1.084       .  S
C387        C388   1.419       .  A
C388        N389   1.434       .  S
N389        O393   1.263       .  A
N389        O394   1.262       .  A
N392        O396   1.262       .  A
N392        O395   1.262       .  A
C397        C398   1.402       .  A
C397        C402   1.398       .  A
C397        H404   1.086       .  S
C398        C399   1.409       .  A
C399        C400   1.399       .  A
C400        C401   1.402       .  A
C400        H405   1.088       .  S
C401        C402   1.409       .  A
C402        N403   1.436       .  S
N403        O407   1.263       .  A
N403        O408   1.262       .  A
N406        O410   1.262       .  A
N406        O409   1.262       .  A
C411        C412   1.405       .  A
C411        C416   1.410       .  A
C411        H418   1.083       .  S
C412        C413   1.418   1_556  A
C413        N420   1.431       .  S
C413        C414   1.402       .  A
C414        C415   1.400       .  A
C415       N1208   1.447       .  S
C415        C416   1.416   1_554  A
C416        N417   1.438       .  S
N417        O421   1.263       .  A
N417       O1382   1.263       .  A
N420        O424   1.262       .  A
O422       N1377   1.263       .  A
C425        C426   1.401       .  A
C425        C430   1.400       .  A
C425        H432   1.084       .  S
C426       C1387   1.410   1_455  A
C427        N434   1.430       .  S
C427       C1386   1.410       .  A
C427        C428   1.402       .  A
C428       C1389   1.402       .  A
C428        H433   1.084       .  S
C429       C1388   1.402       .  A
C429        C430   1.410   1_655  A
C430        N911   1.432       .  S
N431        C910   1.432       .  S
N431        O435   1.262   1_455  A
N431        O436   1.262       .  A
N434        O438   1.262       .  A
N434        O437   1.262       .  A
C439        C440   1.405       .  A
C439        C444   1.399       .  A
C439        H446   1.085       .  S
C440        C441   1.412       .  A
C441        C442   1.405       .  A
C442        C443   1.402       .  A
C442        H447   1.089       .  S
C443        C444   1.405       .  A
C444        N445   1.433       .  S
N445        O449   1.262       .  A
N445        O450   1.262       .  A
N448        O452   1.263   1_455  A
N448        O451   1.263   1_455  A
C453        C454   1.400       .  A
C453        C458   1.396       .  A
C454        C455   1.407       .  A
C455        N462   1.433       .  S
C455        C456   1.405       .  A
C456        C457   1.410       .  A
C456        H461   1.084       .  S
C457        C458   1.413       .  A
C458        N459   1.429       .  S
N459        O464   1.262       .  A
N462        O466   1.262       .  A
N462       O1425   1.262       .  A
O465       N1422   1.262   1_455  A
C467        C468   1.408       .  A
C467        C472   1.410       .  A
C467        H474   1.084       .  S
C468       C1429   1.414   1_455  A
C469        N476   1.432       .  S
C469       C1428   1.414       .  A
C469        C470   1.393       .  A
C470       C1431   1.402       .  A
C470        H475   1.085       .  S
C471       C1430   1.402       .  A
C471        C472   1.410   1_655  A
C472        N473   1.429       .  S
N473        O477   1.262       .  A
N473        O478   1.262       .  A
N476        O480   1.262       .  A
N476        O479   1.262       .  A
N481        C680   1.438   1_655  S
N481       C1445   1.354       .  A
N481        C722   1.355       .  A
C482        N721   1.355       .  A
C482        C711   1.483   1_556  S
C482       C1443   1.388       .  A
C483       C1442   1.388       .  A
C483        C484   1.374       .  A
C483        H486   1.083       .  S
C484        C725   1.377       .  A
C484        H487   1.082       .  S
C485       N1441   1.354       .  A
C485        C694   1.475       .  S
C485        C724   1.377       .  A
N488       C1615   1.447   1_455  S
N488        C492   1.358       .  A
N488        C729   1.358       .  A
C489        N728   1.358       .  A
C489        C666   1.470       .  S
C489        C490   1.382       .  A
C490        C731   1.367       .  A
C490        H493   1.083       .  S
C491        C730   1.367       .  A
C491        C492   1.378       .  A
C491        H494   1.082       .  S
C492        C638   1.468       .  S
O495        C510   1.256       .  A
O495       Al503   1.886       .  S
C496        C641   1.462       .  S
C496        O506   1.261       .  A
C496        O497   1.265       .  A
O497       Al499   1.923       .  S
O498        C500   1.259       .  A
O498       Al499   1.887       .  S
Al499       O507   1.891       .  S
Al499       O509   1.914       .  S
Al499       O508   1.780       .  S
C500        C652   1.493       .  S
C500        O513   1.269       .  A
O501        C511   1.258       .  A
O501       Al503   1.904       .  S
O502        C515   1.260       .  A
O502       Al512   1.890       .  S
Al503       O516   1.925       .  S
Al503       O513   1.940       .  S
Al503       O508   1.783       .  S
O504        C511   1.261       .  A
O504       Al512   1.911       .  S
O505        C514   1.263       .  A
O505       Al512   1.929       .  S
O506       Al512   1.888       .  S
O507        C514   1.257       .  A
O508       Al512   1.787       .  S
O509        C510   1.261       .  A
C510        C697   1.485       .  S
C511        C610   1.470       .  S
C514        C683   1.466       .  S
C515        C624   1.467       .  S
C515        O516   1.269       .  A
N517        C599   1.456       .  S
N517        C521   1.361       .  A
N517        C518   1.363       .  A
C518        C627   1.475       .  S
C518        C519   1.384       .  A
C519        C520   1.366       .  A
C519        H522   1.083       .  S
C520        C521   1.379       .  A
C520        H523   1.082       .  S
C521        C585   1.482       .  S
N524        C554   1.444       .  S
N524        C528   1.362       .  A
N524        C525   1.357       .  A
C525        C613   1.477       .  S
C525        C526   1.383       .  A
C526        C527   1.370       .  A
C526        H529   1.083       .  S
C527        C528   1.381       .  A
C527        H530   1.082       .  S
C528        C571   1.482       .  S
O531        C546   1.260       .  A
C532        C582   1.460       .  S
C532        O542   1.259       .  A
C532        O533   1.266       .  A
O533      Al1495   1.922       .  S
O534        C536   1.257       .  A
O534       Al535   1.888       .  S
Al535      O1493   1.922   1_455  S
Al535      O1023   1.905   1_465  S
Al535       O544   1.787       .  S
C536        C596   1.492       .  S
C536        O549   1.265       .  A
O537        C547   1.264       .  A
O537       Al539   1.918       .  S
O538       C1511   1.262       .  A
Al539       O549   1.930       .  S
Al539       O544   1.783       .  S
O540       C1507   1.260       .  A
O540       Al548   1.901       .  S
O541        C550   1.258       .  A
O542       Al548   1.877       .  S
O543        C550   1.258       .  A
O543      Al1015   1.905       .  S
O544      Al1508   1.777   1_455  S
O545        C546   1.265       .  A
C546        C568   1.470       .  S
C547        C708   1.482       .  S
C547       O1500   1.260   1_455  A
Al548      O1504   1.777       .  S
C550        C557   1.477       .  S
C551        C669   1.473       .  S
C551       O1498   1.262       .  A
C551        O552   1.269   1_655  A
C553        C554   1.405       .  A
C553        C558   1.408       .  A
C553        H560   1.082       .  S
C554        C555   1.414       .  A
C555        N562   1.436       .  S
C555        C556   1.399       .  A
C556        C557   1.399       .  A
C556        H561   1.084       .  S
C557        C558   1.411       .  A
N559        O563   1.262       .  A
N559        O564   1.262   1_545  A
N562        O566   1.263       .  A
N562        O565   1.262       .  A
C567        C568   1.400       .  A
C567        C572   1.399       .  A
C567        H574   1.085       .  S
C568        C569   1.407       .  A
C569        C570   1.401       .  A
C570        C571   1.405       .  A
C570        H575   1.084       .  S
C571        C572   1.413       .  A
C572        N573   1.431       .  S
N573        O577   1.261       .  A
N573        O578   1.262       .  A
N576        O580   1.262       .  A
N576        O579   1.262       .  A
C581        C582   1.397       .  A
C581        C586   1.397       .  A
C581        H588   1.084       .  S
C582        C583   1.410       .  A
C583        N590   1.438       .  S
C583        C584   1.399       .  A
C584        C585   1.404       .  A
C584        H589   1.083       .  S
C585        C586   1.413       .  A
C586        N587   1.428       .  S
N587        O591   1.262       .  A
N587        O592   1.261       .  A
N590        O594   1.262       .  A
N590       O1553   1.263       .  A
O593       N1550   1.263   1_455  A
C595        C596   1.410       .  A
C595        C600   1.407       .  A
C595        H602   1.084       .  S
C596        C597   1.412       .  A
C597        N604   1.435       .  S
C597        C598   1.402       .  A
C598        C599   1.411       .  A
C598        H603   1.083       .  S
C599        C600   1.413       .  A
C600        N601   1.428       .  S
N601        O605   1.261       .  A
N601        O606   1.262       .  A
N604        O608   1.263       .  A
N604        O607   1.263       .  A
C609        C610   1.396       .  A
C609        C614   1.398       .  A
C609        H616   1.086       .  S
C610        C611   1.411       .  A
C611        N618   1.430       .  S
C611        C612   1.407       .  A
C612        C613   1.402       .  A
C612        H617   1.085       .  S
C613        C614   1.412       .  A
C614        N615   1.431       .  S
N615        O619   1.262       .  A
N615        O620   1.262       .  A
N618        O622   1.262       .  A
N618        O621   1.262       .  A
C623        C624   1.394       .  A
C623        C628   1.395       .  A
C623        H630   1.085       .  S
C624        C625   1.408       .  A
C625        N632   1.430       .  S
C625        C626   1.406       .  A
C626        C627   1.404       .  A
C626        H631   1.084       .  S
C627        C628   1.419       .  A
C628        N629   1.434       .  S
N629        O633   1.263       .  A
N629        O634   1.262       .  A
N632        O636   1.262       .  A
N632        O635   1.262       .  A
C637        C638   1.402       .  A
C637        C642   1.398       .  A
C637        H644   1.086       .  S
C638        C639   1.409       .  A
C639        N886   1.434       .  S
C639        C640   1.399       .  A
C640        C641   1.402       .  A
C640        H645   1.088       .  S
C641        C642   1.409       .  A
C642        N643   1.436       .  S
N643        O647   1.263       .  A
N643        O648   1.262       .  A
N646        C879   1.434   1_554  S
N646        O650   1.262       .  A
N646        O649   1.262       .  A
C651        C652   1.405       .  A
C651        C656   1.410       .  A
C651        H658   1.083       .  S
C652        C653   1.418       .  A
C653        N660   1.431       .  S
C653        C654   1.402       .  A
C654        C655   1.400       .  A
C654        H899   1.083       .  S
C655       N1448   1.447       .  S
C655        C656   1.416       .  A
C656        N657   1.438       .  S
N657        O661   1.263       .  A
N657       O1622   1.263       .  A
H659        C894   1.083       .  S
N660        O664   1.262       .  A
N660        O903   1.262       .  A
O662       N1617   1.263       .  A
O663        N900   1.262       .  A
C665        C666   1.401       .  A
C665        C670   1.400       .  A
C665        H672   1.084       .  S
C666       C1627   1.410   1_455  A
C667        N674   1.430       .  S
C667       C1626   1.410       .  A
C667        C668   1.402       .  A
C668       C1629   1.402       .  A
C668        H673   1.084       .  S
C669       C1628   1.402       .  A
C669        C670   1.410   1_655  A
N671        O675   1.262   1_445  A
N671        O676   1.262   1_545  A
N674        O678   1.262       .  A
N674        O677   1.262       .  A
C679        C680   1.405       .  A
C679        C684   1.399       .  A
C679        H686   1.085       .  S
C680        C681   1.412       .  A
C681        N928   1.437       .  S
C681        C682   1.405       .  A
C682        C683   1.402       .  A
C682        H687   1.088       .  S
C683        C684   1.405       .  A
C684        N685   1.433       .  S
N685        O689   1.262       .  A
N685        O690   1.262       .  A
N688        C921   1.437       .  S
N688        O692   1.263   1_456  A
N688        O691   1.263   1_455  A
C693        C694   1.400       .  A
C693        C698   1.396       .  A
C693        H940   1.084       .  S
C694        C695   1.407       .  A
C695        N702   1.433       .  S
C695        C696   1.405       .  A
C696        C697   1.410       .  A
C696        H701   1.084       .  S
C697        C698   1.413       .  A
C698        N699   1.429       .  S
N699        O943   1.262       .  A
N699        O704   1.262       .  A
H700        C933   1.084       .  S
N702        O706   1.262       .  A
N702       O1665   1.262       .  A
O703        N939   1.262   1_554  A
O705       N1662   1.262   1_455  A
C707        C708   1.408       .  A
C707        C712   1.410       .  A
C707        H714   1.084       .  S
C708       C1669   1.414   1_455  A
C709        N716   1.432       .  S
C709       C1668   1.414       .  A
C709        C710   1.393       .  A
C710       C1671   1.402       .  A
C710        H715   1.085       .  S
C711       C1670   1.402       .  A
C711        C712   1.410   1_655  A
C712        N713   1.429       .  S
N713        O717   1.262   1_554  A
N713        O718   1.262       .  A
N716        O720   1.262       .  A
N716        O719   1.262       .  A
N721        C920   1.438   1_655  S
N721       C1685   1.354       .  A
C722        C951   1.483       .  S
C722       C1683   1.388       .  A
C723       C1682   1.388       .  A
C723        C724   1.374       .  A
C723        H726   1.083       .  S
C724        H727   1.082       .  S
C725       N1681   1.354       .  A
C725        C934   1.475       .  S
N728       C1855   1.447   1_455  S
N728        C732   1.358       .  A
C729        C906   1.470       .  S
C729        C730   1.382       .  A
C730        H733   1.083       .  S
C731        C732   1.378       .  A
C731        H734   1.082       .  S
C732        C878   1.468   1_554  S
O735        C750   1.256       .  A
O735       Al743   1.886       .  S
C736        C881   1.462       .  S
C736        O746   1.261       .  A
C736        O737   1.265       .  A
O737       Al739   1.923       .  S
O738        C740   1.259       .  A
O738       Al739   1.887       .  S
Al739       O747   1.891       .  S
Al739       O749   1.914       .  S
Al739       O748   1.780       .  S
C740        C892   1.493       .  S
C740        O753   1.269       .  A
O741        C751   1.258       .  A
O741       Al743   1.904       .  S
O742        C755   1.260       .  A
O742       Al752   1.890       .  S
Al743       O756   1.924       .  S
Al743       O753   1.940       .  S
Al743       O748   1.783       .  S
O744        C751   1.261       .  A
O744       Al752   1.911       .  S
O745        C754   1.263       .  A
O745       Al752   1.929       .  S
O746       Al752   1.888       .  S
O747        C754   1.257       .  A
O748       Al752   1.787       .  S
O749        C750   1.261       .  A
C750        C937   1.485       .  S
C751        C850   1.470       .  S
C754        C923   1.466       .  S
C755        C864   1.467       .  S
C755        O756   1.269       .  A
N757        C839   1.456       .  S
N757        C761   1.361       .  A
N757        C758   1.363       .  A
C758        C867   1.475       .  S
C758        C759   1.384       .  A
C759        C760   1.366       .  A
C759        H762   1.083       .  S
C760        C761   1.379       .  A
C760        H763   1.082       .  S
C761        C825   1.482       .  S
N764        C794   1.444       .  S
N764        C768   1.362       .  A
N764        C765   1.357       .  A
C765        C853   1.477       .  S
C765        C766   1.383       .  A
C766        C767   1.370       .  A
C766        H769   1.083       .  S
C767        C768   1.381       .  A
C767        H770   1.082       .  S
C768        C811   1.482       .  S
O771        C786   1.260       .  A
C772        C822   1.460       .  S
C772        O782   1.259       .  A
C772        O773   1.266       .  A
O773      Al1735   1.922       .  S
O774        C776   1.257       .  A
O774       Al775   1.888       .  S
Al775      O1733   1.922   1_455  S
Al775      O1263   1.905   1_465  S
Al775       O784   1.787       .  S
C776        C836   1.492       .  S
C776        O789   1.265       .  A
O777        C787   1.264       .  A
O777       Al779   1.918       .  S
O778       C1751   1.262       .  A
Al779       O789   1.930       .  S
Al779       O784   1.782       .  S
O780       C1747   1.260       .  A
O780       Al788   1.901       .  S
O781        C790   1.258       .  A
O782       Al788   1.877       .  S
O783        C790   1.258       .  A
O783      Al1255   1.905       .  S
O784      Al1748   1.777   1_455  S
O785        C786   1.265       .  A
C786        C808   1.470       .  S
C787        C948   1.482       .  S
C787       O1740   1.260   1_455  A
Al788      O1744   1.777       .  S
C790        C797   1.477       .  S
C791        C909   1.473       .  S
C791       O1738   1.262       .  A
C791        O792   1.269   1_655  A
C793        C794   1.405       .  A
C793        C798   1.408       .  A
C793        H800   1.082       .  S
C794        C795   1.414       .  A
C795        N802   1.436       .  S
C795        C796   1.399       .  A
C796        C797   1.399       .  A
C796        H801   1.084       .  S
C797        C798   1.411       .  A
N799        O803   1.262       .  A
N799        O804   1.262   1_545  A
N802        O806   1.263       .  A
N802        O805   1.262       .  A
C807        C808   1.400       .  A
C807        C812   1.399       .  A
C807        H814   1.085       .  S
C808        C809   1.407       .  A
C809        C810   1.401       .  A
C810        C811   1.405       .  A
C810        H815   1.084       .  S
C811        C812   1.413       .  A
C812        N813   1.431       .  S
N813        O817   1.261       .  A
N813        O818   1.262       .  A
N816        O820   1.262       .  A
N816        O819   1.262       .  A
C821        C822   1.397       .  A
C821        C826   1.397       .  A
C821        H828   1.084       .  S
C822        C823   1.410       .  A
C823        N830   1.438       .  S
C823        C824   1.399       .  A
C824        C825   1.404       .  A
C824        H829   1.083       .  S
C825        C826   1.413       .  A
C826        N827   1.428       .  S
N827        O831   1.262       .  A
N827        O832   1.261       .  A
N830        O834   1.262       .  A
N830       O1793   1.263       .  A
O833       N1790   1.263   1_455  A
C835        C836   1.410       .  A
C835        C840   1.407       .  A
C835        H842   1.084       .  S
C836        C837   1.412       .  A
C837        N844   1.435       .  S
C837        C838   1.402       .  A
C838        C839   1.411       .  A
C838        H843   1.083       .  S
C839        C840   1.413       .  A
C840        N841   1.428       .  S
N841        O845   1.261       .  A
N841        O846   1.262       .  A
N844        O848   1.263       .  A
N844        O847   1.263       .  A
C849        C850   1.396       .  A
C849        C854   1.398       .  A
C849        H856   1.085       .  S
C850        C851   1.411       .  A
C851        N858   1.430       .  S
C851        C852   1.407       .  A
C852        C853   1.402       .  A
C852        H857   1.085       .  S
C853        C854   1.412       .  A
C854        N855   1.431       .  S
N855        O859   1.262       .  A
N855        O860   1.262       .  A
N858        O862   1.262       .  A
N858        O861   1.262       .  A
C863        C864   1.394       .  A
C863        C868   1.395       .  A
C863        H870   1.085       .  S
C864        C865   1.408       .  A
C865        N872   1.430       .  S
C865        C866   1.406       .  A
C866        C867   1.404       .  A
C866        H871   1.084       .  S
C867        C868   1.419       .  A
C868        N869   1.434       .  S
N869        O873   1.263       .  A
N869        O874   1.262       .  A
N872        O876   1.262       .  A
N872        O875   1.262       .  A
C877        C878   1.402       .  A
C877        C882   1.398       .  A
C877        H884   1.086       .  S
C878        C879   1.409       .  A
C879        C880   1.399       .  A
C880        C881   1.402       .  A
C880        H885   1.088       .  S
C881        C882   1.409       .  A
C882        N883   1.436       .  S
N883        O887   1.263       .  A
N883        O888   1.262       .  A
N886        O890   1.262       .  A
N886        O889   1.262       .  A
C891        C892   1.405       .  A
C891        C896   1.410       .  A
C891        H898   1.083       .  S
C892        C893   1.418   1_556  A
C893        N900   1.431       .  S
C893        C894   1.403       .  A
C894        C895   1.400       .  A
C895       N1688   1.447       .  S
C895        C896   1.416   1_554  A
C896        N897   1.438       .  S
N897        O901   1.263       .  A
N897       O1862   1.263       .  A
N900        O904   1.262       .  A
O902       N1857   1.263       .  A
C905        C906   1.401       .  A
C905        C910   1.400       .  A
C905        H912   1.084       .  S
C906       C1867   1.410   1_455  A
C907        N914   1.430       .  S
C907       C1866   1.410       .  A
C907        C908   1.402       .  A
C908       C1869   1.402       .  A
C908        H913   1.084       .  S
C909       C1868   1.402       .  A
C909        C910   1.410   1_655  A
N911        O915   1.262   1_445  A
N911        O916   1.262   1_545  A
N914        O918   1.262       .  A
N914        O917   1.262       .  A
C919        C920   1.405       .  A
C919        C924   1.399       .  A
C919        H926   1.085       .  S
C920        C921   1.412       .  A
C921        C922   1.405       .  A
C922        C923   1.402       .  A
C922        H927   1.088       .  S
C923        C924   1.405       .  A
C924        N925   1.433       .  S
N925        O929   1.262       .  A
N925        O930   1.262       .  A
N928        O932   1.263   1_455  A
N928        O931   1.263   1_455  A
C933        C934   1.400       .  A
C933        C938   1.396       .  A
C934        C935   1.407       .  A
C935        N942   1.433       .  S
C935        C936   1.405       .  A
C936        C937   1.410       .  A
C936        H941   1.084       .  S
C937        C938   1.413       .  A
C938        N939   1.429       .  S
N939        O944   1.262       .  A
N942        O946   1.262       .  A
N942       O1905   1.262       .  A
O945       N1902   1.262   1_455  A
C947        C948   1.408       .  A
C947        C952   1.410       .  A
C947        H954   1.084       .  S
C948       C1909   1.414   1_455  A
C949        N956   1.432       .  S
C949       C1908   1.414       .  A
C949        C950   1.393       .  A
C950       C1911   1.402       .  A
C950        H955   1.085       .  S
C951       C1910   1.402       .  A
C951        C952   1.410   1_655  A
C952        N953   1.429       .  S
N953        O957   1.262       .  A
N953        O958   1.262       .  A
N956        O960   1.262       .  A
N956        O959   1.262       .  A
N961       C1160   1.438       .  S
N961       C1202   1.355       .  A
C962       N1201   1.355       .  A
C962       C1191   1.483   1_556  S
C963        C964   1.374       .  A
C963        H966   1.083       .  S
C964       C1205   1.377       .  A
C964        H967   1.082       .  S
C965       C1174   1.475       .  S
C965       C1204   1.377       .  A
N968        C972   1.358       .  A
N968       C1209   1.358       .  A
C969       N1208   1.358       .  A
C969       C1146   1.470       .  S
C969        C970   1.382       .  A
C970       C1211   1.368       .  A
C970        H973   1.083       .  S
C971       C1210   1.368       .  A
C971        C972   1.378       .  A
C971        H974   1.082       .  S
C972       C1118   1.468       .  S
O975        C990   1.256       .  A
O975       Al983   1.887       .  S
C976       C1121   1.462       .  S
C976        O986   1.261       .  A
C976        O977   1.265       .  A
O977       Al979   1.923       .  S
O978        C980   1.259       .  A
O978       Al979   1.887       .  S
Al979       O987   1.891       .  S
Al979       O989   1.914       .  S
Al979       O988   1.780       .  S
C980       C1132   1.494       .  S
C980        O993   1.269       .  A
O981        C991   1.258       .  A
O981       Al983   1.904       .  S
O982        C995   1.260       .  A
O982       Al992   1.890       .  S
Al983       O996   1.925       .  S
Al983       O993   1.940       .  S
Al983       O988   1.783       .  S
O984        C991   1.261       .  A
O984       Al992   1.911       .  S
O985        C994   1.263       .  A
O985       Al992   1.929       .  S
O986       Al992   1.889       .  S
O987        C994   1.257       .  A
O988       Al992   1.787       .  S
O989        C990   1.261       .  A
C990       C1177   1.485       .  S
C991       C1090   1.470       .  S
C994       C1163   1.466       .  S
C995       C1104   1.467       .  S
C995        O996   1.269       .  A
N997       C1079   1.456       .  S
N997       C1001   1.361       .  A
N997        C998   1.363       .  A
C998       C1107   1.475       .  S
C998        C999   1.384       .  A
C999       C1000   1.366       .  A
C999       H1002   1.083       .  S
C1000      C1001   1.379       .  A
C1000      H1003   1.082       .  S
C1001      C1065   1.482       .  S
N1004      C1034   1.444       .  S
N1004      C1008   1.362       .  A
N1004      C1005   1.357       .  A
C1005      C1093   1.477       .  S
C1005      C1006   1.383       .  A
C1006      C1007   1.370       .  A
C1006      H1009   1.083       .  S
C1007      C1008   1.381       .  A
C1007      H1010   1.082       .  S
C1008      C1051   1.482       .  S
O1011      C1026   1.260   1_565  A
O1011     Al1499   1.888       .  S
C1012      C1062   1.460       .  S
C1012      O1022   1.259       .  A
C1012      O1013   1.266       .  A
O1014      C1016   1.257       .  A
O1014     Al1015   1.888       .  S
Al1015     O1505   1.923       .  S
Al1015     O1024   1.787       .  S
C1016      C1076   1.492       .  S
C1016      O1029   1.265       .  A
O1017      C1027   1.264       .  A
O1017     Al1019   1.918       .  S
O1018     Al1508   1.898   1_545  S
Al1019     O1491   1.888       .  S
Al1019     O1512   1.933       .  S
Al1019     O1029   1.931       .  S
Al1019     O1024   1.782       .  S
O1020     Al1028   1.900       .  S
O1021      C1030   1.258       .  A
O1021     Al1508   1.901   1_545  S
O1022     Al1028   1.876       .  S
O1023      C1030   1.258       .  A
O1025      C1026   1.265   1_565  A
O1025     Al1495   1.923       .  S
C1026      C1048   1.470       .  S
C1027      C1188   1.482       .  S
Al1028     O1498   1.898       .  S
Al1028     O1501   1.901       .  S
C1030      C1037   1.477       .  S
C1031      C1149   1.473       .  S
C1031      O1032   1.269   1_545  A
O1032     Al1499   1.933       .  S
C1033      C1034   1.406       .  A
C1033      C1038   1.408       .  A
C1033      H1040   1.082       .  S
C1034      C1035   1.414       .  A
C1035      N1042   1.436       .  S
C1035      C1036   1.399       .  A
C1036      C1037   1.399       .  A
C1036      H1041   1.084       .  S
C1037      C1038   1.411       .  A
C1038      N1519   1.430       .  S
N1039      C1518   1.430       .  S
N1039      O1043   1.262       .  A
N1039      O1044   1.262       .  A
N1042      O1046   1.263       .  A
N1042      O1045   1.262       .  A
C1047      C1048   1.400       .  A
C1047      C1052   1.399       .  A
C1047      H1054   1.085       .  S
C1048      C1049   1.407       .  A
C1049      N1536   1.428   1_545  S
C1049      C1050   1.401       .  A
C1050      C1051   1.405       .  A
C1050      H1055   1.084       .  S
C1051      C1052   1.413       .  A
C1052      N1053   1.431       .  S
N1053      O1057   1.261       .  A
N1053      O1058   1.262       .  A
N1056      C1529   1.428       .  S
N1056      O1060   1.262       .  A
N1056      O1059   1.261       .  A
C1061      C1062   1.397       .  A
C1061      C1066   1.397       .  A
C1061      H1068   1.084       .  S
C1062      C1063   1.410       .  A
C1063      N1070   1.438       .  S
C1063      C1064   1.399       .  A
C1064      C1065   1.404       .  A
C1064      H1069   1.084       .  S
C1065      C1066   1.413       .  A
C1066      N1067   1.428       .  S
N1067      O1071   1.262       .  A
N1067      O1072   1.260       .  A
N1070      O1074   1.262       .  A
C1075      C1076   1.410       .  A
C1075      C1080   1.407       .  A
C1075      H1082   1.084       .  S
C1076      C1077   1.412       .  A
C1077      N1084   1.435       .  S
C1077      C1078   1.402       .  A
C1078      C1079   1.411       .  A
C1078      H1083   1.083       .  S
C1079      C1080   1.413       .  A
C1080      N1081   1.429       .  S
N1081      O1085   1.261       .  A
N1081      O1086   1.262       .  A
N1084      O1088   1.263       .  A
N1084      O1087   1.263       .  A
C1089      C1090   1.396       .  A
C1089      C1094   1.398       .  A
C1089      H1096   1.085       .  S
C1090      C1091   1.411       .  A
C1091      N1098   1.430       .  S
C1091      C1092   1.407       .  A
C1092      C1093   1.402       .  A
C1092      H1097   1.085       .  S
C1093      C1094   1.413       .  A
C1094      N1095   1.431       .  S
N1095      O1099   1.262       .  A
N1095      O1100   1.262       .  A
N1098      O1102   1.262       .  A
N1098      O1101   1.262       .  A
C1103      C1104   1.394       .  A
C1103      C1108   1.395       .  A
C1103      H1110   1.085       .  S
C1104      C1105   1.408       .  A
C1105      N1112   1.430       .  S
C1105      C1106   1.406       .  A
C1106      C1107   1.404       .  A
C1106      H1111   1.084       .  S
C1107      C1108   1.419       .  A
C1108      N1109   1.434       .  S
N1109      O1113   1.263       .  A
N1109      O1114   1.262       .  A
N1112      O1116   1.262       .  A
N1112      O1115   1.262       .  A
C1117      C1118   1.402       .  A
C1117      C1122   1.398       .  A
C1117      H1124   1.086       .  S
C1118      C1119   1.409       .  A
C1119      N1366   1.434       .  S
C1119      C1120   1.399       .  A
C1120      C1121   1.402       .  A
C1120      H1125   1.088       .  S
C1121      C1122   1.409       .  A
C1122      N1123   1.436       .  S
N1123      O1127   1.263       .  A
N1123      O1128   1.262       .  A
N1126      C1359   1.434   1_554  S
N1126      O1130   1.262       .  A
N1126      O1129   1.262       .  A
C1131      C1132   1.405       .  A
C1131      C1136   1.410   1_655  A
C1131      H1138   1.083       .  S
C1132      C1133   1.418       .  A
C1133      N1140   1.431       .  S
C1133      C1134   1.402       .  A
C1134      C1135   1.400       .  A
C1134      H1379   1.083       .  S
C1135      C1136   1.416   1_655  A
C1136      N1137   1.438       .  S
N1137      O1141   1.263       .  A
H1139      C1374   1.083       .  S
N1140      O1144   1.262       .  A
N1140      O1383   1.262       .  A
O1143      N1380   1.262       .  A
C1145      C1146   1.401       .  A
C1145      C1150   1.400       .  A
C1145      H1152   1.084       .  S
C1147      N1154   1.430       .  S
C1147      C1148   1.402       .  A
C1148      H1153   1.084       .  S
C1149      C1150   1.410       .  A
C1150      N1631   1.432       .  S
N1151      C1630   1.432       .  S
N1151      O1155   1.262       .  A
N1151      O1156   1.262       .  A
N1154      O1158   1.262   1_655  A
N1154      O1157   1.262       .  A
C1159      C1160   1.405       .  A
C1159      C1164   1.399       .  A
C1159      H1166   1.085       .  S
C1160      C1161   1.412       .  A
C1161      N1408   1.437       .  S
C1161      C1162   1.404       .  A
C1162      C1163   1.402       .  A
C1162      H1167   1.089       .  S
C1163      C1164   1.405       .  A
C1164      N1165   1.433       .  S
N1165      O1169   1.262       .  A
N1165      O1170   1.262       .  A
N1168      C1401   1.437       .  S
N1168      O1172   1.263   1_556  A
N1168      O1171   1.263       .  A
C1173      C1174   1.400       .  A
C1173      C1178   1.396       .  A
C1173      H1420   1.084       .  S
C1174      C1175   1.407       .  A
C1175      N1182   1.433       .  S
C1175      C1176   1.405       .  A
C1176      C1177   1.410       .  A
C1176      H1181   1.084       .  S
C1177      C1178   1.413       .  A
C1178      N1179   1.429       .  S
N1179      O1423   1.262       .  A
N1179      O1184   1.262       .  A
H1180      C1413   1.084       .  S
N1182      O1186   1.262       .  A
O1183      N1419   1.262   1_554  A
C1187      C1188   1.408       .  A
C1187      C1192   1.410       .  A
C1187      H1194   1.084       .  S
C1189      N1196   1.432       .  S
C1189      C1190   1.393       .  A
C1190      H1195   1.085       .  S
C1191      C1192   1.410       .  A
C1192      N1193   1.429       .  S
N1193      O1197   1.262   1_554  A
N1193      O1198   1.262       .  A
N1196      O1200   1.262       .  A
N1196      O1199   1.262       .  A
N1201      C1400   1.438       .  S
C1202      C1431   1.483       .  S
C1203      C1204   1.374       .  A
C1203      H1206   1.083       .  S
C1204      H1207   1.082       .  S
C1205      C1414   1.475       .  S
N1208      C1212   1.358       .  A
C1209      C1386   1.470       .  S
C1209      C1210   1.382       .  A
C1210      H1213   1.083       .  S
C1211      C1212   1.378       .  A
C1211      H1214   1.082       .  S
C1212      C1358   1.468   1_554  S
O1215      C1230   1.256       .  A
O1215     Al1223   1.887       .  S
C1216      C1361   1.462       .  S
C1216      O1226   1.261       .  A
C1216      O1217   1.265       .  A
O1217     Al1219   1.923       .  S
O1218      C1220   1.259       .  A
O1218     Al1219   1.887       .  S
Al1219     O1227   1.891       .  S
Al1219     O1229   1.914       .  S
Al1219     O1228   1.780       .  S
C1220      C1372   1.494       .  S
C1220      O1233   1.269       .  A
O1221      C1231   1.258       .  A
O1221     Al1223   1.904       .  S
O1222      C1235   1.260       .  A
O1222     Al1232   1.890       .  S
Al1223     O1236   1.925       .  S
Al1223     O1233   1.940       .  S
Al1223     O1228   1.783       .  S
O1224      C1231   1.261       .  A
O1224     Al1232   1.911       .  S
O1225      C1234   1.263       .  A
O1225     Al1232   1.929       .  S
O1226     Al1232   1.889       .  S
O1227      C1234   1.257       .  A
O1228     Al1232   1.787       .  S
O1229      C1230   1.261       .  A
C1230      C1417   1.485       .  S
C1231      C1330   1.470       .  S
C1234      C1403   1.466       .  S
C1235      C1344   1.467       .  S
C1235      O1236   1.269       .  A
N1237      C1319   1.456       .  S
N1237      C1241   1.361       .  A
N1237      C1238   1.363       .  A
C1238      C1347   1.475       .  S
C1238      C1239   1.384       .  A
C1239      C1240   1.366       .  A
C1239      H1242   1.083       .  S
C1240      C1241   1.379       .  A
C1240      H1243   1.082       .  S
C1241      C1305   1.482       .  S
N1244      C1274   1.444       .  S
N1244      C1248   1.362       .  A
N1244      C1245   1.357       .  A
C1245      C1333   1.477       .  S
C1245      C1246   1.383       .  A
C1246      C1247   1.370       .  A
C1246      H1249   1.083       .  S
C1247      C1248   1.381       .  A
C1247      H1250   1.082       .  S
C1248      C1291   1.482       .  S
O1251      C1266   1.260   1_565  A
O1251     Al1739   1.888       .  S
C1252      C1302   1.460       .  S
C1252      O1262   1.259       .  A
C1252      O1253   1.266       .  A
O1254      C1256   1.257       .  A
O1254     Al1255   1.888       .  S
Al1255     O1745   1.923       .  S
Al1255     O1264   1.787       .  S
C1256      C1316   1.492       .  S
C1256      O1269   1.265       .  A
O1257      C1267   1.264       .  A
O1257     Al1259   1.918       .  S
O1258     Al1748   1.898   1_545  S
Al1259     O1731   1.888       .  S
Al1259     O1752   1.933       .  S
Al1259     O1269   1.931       .  S
Al1259     O1264   1.782       .  S
O1260     Al1268   1.900       .  S
O1261      C1270   1.258       .  A
O1261     Al1748   1.901   1_545  S
O1262     Al1268   1.876       .  S
O1263      C1270   1.258       .  A
O1265      C1266   1.265   1_565  A
O1265     Al1735   1.923       .  S
C1266      C1288   1.470       .  S
C1267      C1428   1.482       .  S
Al1268     O1738   1.898       .  S
Al1268     O1741   1.901       .  S
C1270      C1277   1.477       .  S
C1271      C1389   1.473       .  S
C1271      O1272   1.269   1_545  A
O1272     Al1739   1.933       .  S
C1273      C1274   1.406       .  A
C1273      C1278   1.408       .  A
C1273      H1280   1.082       .  S
C1274      C1275   1.414       .  A
C1275      N1282   1.436       .  S
C1275      C1276   1.399       .  A
C1276      C1277   1.399       .  A
C1276      H1281   1.084       .  S
C1277      C1278   1.411       .  A
C1278      N1759   1.430       .  S
N1279      C1758   1.430       .  S
N1279      O1283   1.262       .  A
N1279      O1284   1.262       .  A
N1282      O1286   1.263       .  A
N1282      O1285   1.262       .  A
C1287      C1288   1.400       .  A
C1287      C1292   1.399       .  A
C1287      H1294   1.085       .  S
C1288      C1289   1.407       .  A
C1289      N1776   1.428   1_545  S
C1289      C1290   1.402       .  A
C1290      C1291   1.405       .  A
C1290      H1295   1.084       .  S
C1291      C1292   1.413       .  A
C1292      N1293   1.431       .  S
N1293      O1297   1.261       .  A
N1293      O1298   1.262       .  A
N1296      C1769   1.428       .  S
N1296      O1300   1.262       .  A
N1296      O1299   1.262       .  A
C1301      C1302   1.397       .  A
C1301      C1306   1.397       .  A
C1301      H1308   1.084       .  S
C1302      C1303   1.410       .  A
C1303      N1310   1.438       .  S
C1303      C1304   1.399       .  A
C1304      C1305   1.404       .  A
C1304      H1309   1.084       .  S
C1305      C1306   1.413       .  A
C1306      N1307   1.428       .  S
N1307      O1311   1.262       .  A
N1307      O1312   1.260       .  A
N1310      O1314   1.262       .  A
C1315      C1316   1.410       .  A
C1315      C1320   1.407       .  A
C1315      H1322   1.084       .  S
C1316      C1317   1.412       .  A
C1317      N1324   1.435       .  S
C1317      C1318   1.402       .  A
C1318      C1319   1.411       .  A
C1318      H1323   1.083       .  S
C1319      C1320   1.413       .  A
C1320      N1321   1.429       .  S
N1321      O1325   1.261       .  A
N1321      O1326   1.262       .  A
N1324      O1328   1.263       .  A
N1324      O1327   1.263       .  A
C1329      C1330   1.396       .  A
C1329      C1334   1.398       .  A
C1329      H1336   1.085       .  S
C1330      C1331   1.411       .  A
C1331      N1338   1.430       .  S
C1331      C1332   1.407       .  A
C1332      C1333   1.402       .  A
C1332      H1337   1.085       .  S
C1333      C1334   1.413       .  A
C1334      N1335   1.431       .  S
N1335      O1339   1.262       .  A
N1335      O1340   1.262       .  A
N1338      O1342   1.262       .  A
N1338      O1341   1.262       .  A
C1343      C1344   1.394       .  A
C1343      C1348   1.395       .  A
C1343      H1350   1.085       .  S
C1344      C1345   1.408       .  A
C1345      N1352   1.430       .  S
C1345      C1346   1.406       .  A
C1346      C1347   1.404       .  A
C1346      H1351   1.084       .  S
C1347      C1348   1.419       .  A
C1348      N1349   1.434       .  S
N1349      O1353   1.263       .  A
N1349      O1354   1.262       .  A
N1352      O1356   1.262       .  A
N1352      O1355   1.262       .  A
C1357      C1358   1.402       .  A
C1357      C1362   1.398       .  A
C1357      H1364   1.086       .  S
C1358      C1359   1.409       .  A
C1359      C1360   1.399       .  A
C1360      C1361   1.402       .  A
C1360      H1365   1.088       .  S
C1361      C1362   1.409       .  A
C1362      N1363   1.436       .  S
N1363      O1367   1.263       .  A
N1363      O1368   1.262       .  A
N1366      O1370   1.262       .  A
N1366      O1369   1.262       .  A
C1371      C1372   1.405       .  A
C1371      C1376   1.410   1_655  A
C1371      H1378   1.083       .  S
C1372      C1373   1.418   1_556  A
C1373      N1380   1.431       .  S
C1373      C1374   1.402       .  A
C1374      C1375   1.400       .  A
C1375      C1376   1.416   1_654  A
C1376      N1377   1.438       .  S
N1377      O1381   1.263       .  A
N1380      O1384   1.262       .  A
C1385      C1386   1.401       .  A
C1385      C1390   1.400       .  A
C1385      H1392   1.084       .  S
C1387      N1394   1.430       .  S
C1387      C1388   1.402       .  A
C1388      H1393   1.084       .  S
C1389      C1390   1.410       .  A
C1390      N1871   1.432       .  S
N1391      C1870   1.432       .  S
N1391      O1395   1.262       .  A
N1391      O1396   1.262       .  A
N1394      O1398   1.262   1_655  A
N1394      O1397   1.262       .  A
C1399      C1400   1.405       .  A
C1399      C1404   1.399       .  A
C1399      H1406   1.085       .  S
C1400      C1401   1.412       .  A
C1401      C1402   1.404       .  A
C1402      C1403   1.402       .  A
C1402      H1407   1.088       .  S
C1403      C1404   1.405       .  A
C1404      N1405   1.433       .  S
N1405      O1409   1.262       .  A
N1405      O1410   1.262       .  A
N1408      O1412   1.263       .  A
N1408      O1411   1.263       .  A
C1413      C1414   1.400       .  A
C1413      C1418   1.396       .  A
C1414      C1415   1.407       .  A
C1415      N1422   1.433       .  S
C1415      C1416   1.405       .  A
C1416      C1417   1.410       .  A
C1416      H1421   1.084       .  S
C1417      C1418   1.413       .  A
C1418      N1419   1.429       .  S
N1419      O1424   1.262       .  A
N1422      O1426   1.262       .  A
C1427      C1428   1.408       .  A
C1427      C1432   1.410       .  A
C1427      H1434   1.084       .  S
C1429      N1436   1.432       .  S
C1429      C1430   1.393       .  A
C1430      H1435   1.085       .  S
C1431      C1432   1.410       .  A
C1432      N1433   1.429       .  S
N1433      O1437   1.262       .  A
N1433      O1438   1.262       .  A
N1436      O1440   1.262       .  A
N1436      O1439   1.262       .  A
N1441      C1640   1.438       .  S
N1441      C1682   1.355       .  A
C1442      N1681   1.355       .  A
C1442      C1671   1.483   1_556  S
C1443      C1444   1.374       .  A
C1443      H1446   1.083       .  S
C1444      C1685   1.377       .  A
C1444      H1447   1.082       .  S
C1445      C1654   1.475       .  S
C1445      C1684   1.377       .  A
N1448      C1452   1.358       .  A
N1448      C1689   1.358       .  A
C1449      N1688   1.358       .  A
C1449      C1626   1.470       .  S
C1449      C1450   1.382       .  A
C1450      C1691   1.367       .  A
C1450      H1453   1.083       .  S
C1451      C1690   1.367       .  A
C1451      C1452   1.378       .  A
C1451      H1454   1.082       .  S
C1452      C1598   1.468       .  S
O1455      C1470   1.256       .  A
O1455     Al1463   1.886       .  S
C1456      C1601   1.462       .  S
C1456      O1466   1.261       .  A
C1456      O1457   1.265       .  A
O1457     Al1459   1.923       .  S
O1458      C1460   1.259       .  A
O1458     Al1459   1.887       .  S
Al1459     O1467   1.891       .  S
Al1459     O1469   1.914       .  S
Al1459     O1468   1.780       .  S
C1460      C1612   1.493       .  S
C1460      O1473   1.269       .  A
O1461      C1471   1.258       .  A
O1461     Al1463   1.904       .  S
O1462      C1475   1.260       .  A
O1462     Al1472   1.890       .  S
Al1463     O1476   1.924       .  S
Al1463     O1473   1.940       .  S
Al1463     O1468   1.783       .  S
O1464      C1471   1.261       .  A
O1464     Al1472   1.911       .  S
O1465      C1474   1.263       .  A
O1465     Al1472   1.929       .  S
O1466     Al1472   1.888       .  S
O1467      C1474   1.257       .  A
O1468     Al1472   1.787       .  S
O1469      C1470   1.261       .  A
C1470      C1657   1.485       .  S
C1471      C1570   1.470       .  S
C1474      C1643   1.466       .  S
C1475      C1584   1.466       .  S
C1475      O1476   1.269       .  A
N1477      C1559   1.456       .  S
N1477      C1481   1.361       .  A
N1477      C1478   1.363       .  A
C1478      C1587   1.475       .  S
C1478      C1479   1.384       .  A
C1479      C1480   1.366       .  A
C1479      H1482   1.083       .  S
C1480      C1481   1.379       .  A
C1480      H1483   1.082       .  S
C1481      C1545   1.482       .  S
N1484      C1514   1.444       .  S
N1484      C1488   1.362       .  A
N1484      C1485   1.357       .  A
C1485      C1573   1.477       .  S
C1485      C1486   1.383       .  A
C1486      C1487   1.370       .  A
C1486      H1489   1.083       .  S
C1487      C1488   1.381       .  A
C1487      H1490   1.082       .  S
C1488      C1531   1.482       .  S
O1491      C1506   1.260       .  A
C1492      C1542   1.460       .  S
C1492      O1502   1.259       .  A
C1492      O1493   1.266       .  A
O1494      C1496   1.257       .  A
O1494     Al1495   1.888       .  S
Al1495     O1504   1.787       .  S
C1496      C1556   1.492       .  S
C1496      O1509   1.265       .  A
O1497      C1507   1.264       .  A
O1497     Al1499   1.918       .  S
Al1499     O1509   1.930       .  S
Al1499     O1504   1.783       .  S
O1500     Al1508   1.901       .  S
O1501      C1510   1.258       .  A
O1502     Al1508   1.877       .  S
O1503      C1510   1.258       .  A
O1505      C1506   1.265       .  A
C1506      C1528   1.470       .  S
C1507      C1668   1.482       .  S
C1510      C1517   1.477       .  S
C1511      C1629   1.473       .  S
C1511      O1512   1.269       .  A
C1513      C1514   1.405       .  A
C1513      C1518   1.408       .  A
C1513      H1520   1.082       .  S
C1514      C1515   1.414       .  A
C1515      N1522   1.436       .  S
C1515      C1516   1.399       .  A
C1516      C1517   1.399       .  A
C1516      H1521   1.084       .  S
C1517      C1518   1.411       .  A
N1519      O1523   1.262       .  A
N1519      O1524   1.262   1_545  A
N1522      O1526   1.263       .  A
N1522      O1525   1.262       .  A
C1527      C1528   1.400       .  A
C1527      C1532   1.399       .  A
C1527      H1534   1.085       .  S
C1528      C1529   1.407       .  A
C1529      C1530   1.401       .  A
C1530      C1531   1.405       .  A
C1530      H1535   1.084       .  S
C1531      C1532   1.413       .  A
C1532      N1533   1.431       .  S
N1533      O1537   1.261       .  A
N1533      O1538   1.262       .  A
N1536      O1540   1.262       .  A
N1536      O1539   1.262       .  A
C1541      C1542   1.397       .  A
C1541      C1546   1.397       .  A
C1541      H1548   1.084       .  S
C1542      C1543   1.410       .  A
C1543      N1550   1.438       .  S
C1543      C1544   1.399       .  A
C1544      C1545   1.404       .  A
C1544      H1549   1.083       .  S
C1545      C1546   1.413       .  A
C1546      N1547   1.428       .  S
N1547      O1551   1.262       .  A
N1547      O1552   1.261       .  A
N1550      O1554   1.262       .  A
C1555      C1556   1.410       .  A
C1555      C1560   1.407       .  A
C1555      H1562   1.084       .  S
C1556      C1557   1.412       .  A
C1557      N1564   1.435       .  S
C1557      C1558   1.402       .  A
C1558      C1559   1.411       .  A
C1558      H1563   1.083       .  S
C1559      C1560   1.413       .  A
C1560      N1561   1.428       .  S
N1561      O1565   1.261       .  A
N1561      O1566   1.262       .  A
N1564      O1568   1.263       .  A
N1564      O1567   1.263       .  A
C1569      C1570   1.396       .  A
C1569      C1574   1.398       .  A
C1569      H1576   1.086       .  S
C1570      C1571   1.411       .  A
C1571      N1578   1.430       .  S
C1571      C1572   1.407       .  A
C1572      C1573   1.402       .  A
C1572      H1577   1.085       .  S
C1573      C1574   1.412       .  A
C1574      N1575   1.431       .  S
N1575      O1579   1.262       .  A
N1575      O1580   1.262       .  A
N1578      O1582   1.262       .  A
N1578      O1581   1.262       .  A
C1583      C1584   1.394       .  A
C1583      C1588   1.395       .  A
C1583      H1590   1.085       .  S
C1584      C1585   1.408       .  A
C1585      N1592   1.430       .  S
C1585      C1586   1.406       .  A
C1586      C1587   1.404       .  A
C1586      H1591   1.084       .  S
C1587      C1588   1.419       .  A
C1588      N1589   1.434       .  S
N1589      O1593   1.263       .  A
N1589      O1594   1.262       .  A
N1592      O1596   1.262       .  A
N1592      O1595   1.262       .  A
C1597      C1598   1.402       .  A
C1597      C1602   1.398       .  A
C1597      H1604   1.086       .  S
C1598      C1599   1.409       .  A
C1599      N1846   1.434       .  S
C1599      C1600   1.399       .  A
C1600      C1601   1.402       .  A
C1600      H1605   1.088       .  S
C1601      C1602   1.409       .  A
C1602      N1603   1.436       .  S
N1603      O1607   1.263       .  A
N1603      O1608   1.262       .  A
N1606      C1839   1.434   1_554  S
N1606      O1610   1.262       .  A
N1606      O1609   1.262       .  A
C1611      C1612   1.405       .  A
C1611      C1616   1.410   1_655  A
C1611      H1618   1.083       .  S
C1612      C1613   1.418       .  A
C1613      N1620   1.431       .  S
C1613      C1614   1.403       .  A
C1614      C1615   1.401       .  A
C1614      H1859   1.083       .  S
C1615      C1616   1.416   1_655  A
C1616      N1617   1.438       .  S
N1617      O1621   1.263       .  A
H1619      C1854   1.083       .  S
N1620      O1624   1.262       .  A
N1620      O1863   1.262       .  A
O1623      N1860   1.262       .  A
C1625      C1626   1.401       .  A
C1625      C1630   1.400       .  A
C1625      H1632   1.084       .  S
C1627      N1634   1.430       .  S
C1627      C1628   1.402       .  A
C1628      H1633   1.084       .  S
C1629      C1630   1.410       .  A
N1631      O1635   1.262   1_545  A
N1631      O1636   1.262   1_545  A
N1634      O1638   1.262   1_655  A
N1634      O1637   1.262       .  A
C1639      C1640   1.405       .  A
C1639      C1644   1.399       .  A
C1639      H1646   1.085       .  S
C1640      C1641   1.412       .  A
C1641      N1888   1.437       .  S
C1641      C1642   1.405       .  A
C1642      C1643   1.402       .  A
C1642      H1647   1.088       .  S
C1643      C1644   1.405       .  A
C1644      N1645   1.433       .  S
N1645      O1649   1.262       .  A
N1645      O1650   1.262       .  A
N1648      C1881   1.437       .  S
N1648      O1652   1.263   1_556  A
N1648      O1651   1.263       .  A
C1653      C1654   1.400       .  A
C1653      C1658   1.396       .  A
C1653      H1900   1.084       .  S
C1654      C1655   1.407       .  A
C1655      N1662   1.433       .  S
C1655      C1656   1.405       .  A
C1656      C1657   1.410       .  A
C1656      H1661   1.084       .  S
C1657      C1658   1.413       .  A
C1658      N1659   1.429       .  S
N1659      O1903   1.262       .  A
N1659      O1664   1.262       .  A
H1660      C1893   1.084       .  S
N1662      O1666   1.262       .  A
O1663      N1899   1.262   1_554  A
C1667      C1668   1.408       .  A
C1667      C1672   1.410       .  A
C1667      H1674   1.084       .  S
C1669      N1676   1.432       .  S
C1669      C1670   1.393       .  A
C1670      H1675   1.085       .  S
C1671      C1672   1.410       .  A
C1672      N1673   1.429       .  S
N1673      O1677   1.262   1_554  A
N1673      O1678   1.262       .  A
N1676      O1680   1.262       .  A
N1676      O1679   1.262       .  A
N1681      C1880   1.438       .  S
C1682      C1911   1.483       .  S
C1683      C1684   1.374       .  A
C1683      H1686   1.083       .  S
C1684      H1687   1.082       .  S
C1685      C1894   1.475       .  S
N1688      C1692   1.358       .  A
C1689      C1866   1.470       .  S
C1689      C1690   1.382       .  A
C1690      H1693   1.083       .  S
C1691      C1692   1.378       .  A
C1691      H1694   1.082       .  S
C1692      C1838   1.468   1_554  S
O1695      C1710   1.256       .  A
O1695     Al1703   1.886       .  S
C1696      C1841   1.462       .  S
C1696      O1706   1.261       .  A
C1696      O1697   1.265       .  A
O1697     Al1699   1.923       .  S
O1698      C1700   1.259       .  A
O1698     Al1699   1.887       .  S
Al1699     O1707   1.891       .  S
Al1699     O1709   1.914       .  S
Al1699     O1708   1.780       .  S
C1700      C1852   1.493       .  S
C1700      O1713   1.269       .  A
O1701      C1711   1.258       .  A
O1701     Al1703   1.904       .  S
O1702      C1715   1.260       .  A
O1702     Al1712   1.890       .  S
Al1703     O1716   1.924       .  S
Al1703     O1713   1.940       .  S
Al1703     O1708   1.783       .  S
O1704      C1711   1.261       .  A
O1704     Al1712   1.911       .  S
O1705      C1714   1.263       .  A
O1705     Al1712   1.929       .  S
O1706     Al1712   1.888       .  S
O1707      C1714   1.257       .  A
O1708     Al1712   1.787       .  S
O1709      C1710   1.261       .  A
C1710      C1897   1.485       .  S
C1711      C1810   1.470       .  S
C1714      C1883   1.466       .  S
C1715      C1824   1.466       .  S
C1715      O1716   1.269       .  A
N1717      C1799   1.456       .  S
N1717      C1721   1.361       .  A
N1717      C1718   1.363       .  A
C1718      C1827   1.475       .  S
C1718      C1719   1.384       .  A
C1719      C1720   1.366       .  A
C1719      H1722   1.083       .  S
C1720      C1721   1.379       .  A
C1720      H1723   1.082       .  S
C1721      C1785   1.482       .  S
N1724      C1754   1.444       .  S
N1724      C1728   1.362       .  A
N1724      C1725   1.357       .  A
C1725      C1813   1.477       .  S
C1725      C1726   1.383       .  A
C1726      C1727   1.370       .  A
C1726      H1729   1.083       .  S
C1727      C1728   1.381       .  A
C1727      H1730   1.082       .  S
C1728      C1771   1.482       .  S
O1731      C1746   1.260       .  A
C1732      C1782   1.460       .  S
C1732      O1742   1.259       .  A
C1732      O1733   1.266       .  A
O1734      C1736   1.257       .  A
O1734     Al1735   1.888       .  S
Al1735     O1744   1.787       .  S
C1736      C1796   1.492       .  S
C1736      O1749   1.265       .  A
O1737      C1747   1.264       .  A
O1737     Al1739   1.918       .  S
Al1739     O1749   1.930       .  S
Al1739     O1744   1.783       .  S
O1740     Al1748   1.901       .  S
O1741      C1750   1.258       .  A
O1742     Al1748   1.877       .  S
O1743      C1750   1.258       .  A
O1745      C1746   1.265       .  A
C1746      C1768   1.470       .  S
C1747      C1908   1.482       .  S
C1750      C1757   1.477       .  S
C1751      C1869   1.473       .  S
C1751      O1752   1.269       .  A
C1753      C1754   1.405       .  A
C1753      C1758   1.408       .  A
C1753      H1760   1.082       .  S
C1754      C1755   1.414       .  A
C1755      N1762   1.436       .  S
C1755      C1756   1.399       .  A
C1756      C1757   1.399       .  A
C1756      H1761   1.084       .  S
C1757      C1758   1.411       .  A
N1759      O1763   1.262       .  A
N1759      O1764   1.262   1_545  A
N1762      O1766   1.263       .  A
N1762      O1765   1.262       .  A
C1767      C1768   1.400       .  A
C1767      C1772   1.399       .  A
C1767      H1774   1.085       .  S
C1768      C1769   1.407       .  A
C1769      C1770   1.401       .  A
C1770      C1771   1.405       .  A
C1770      H1775   1.084       .  S
C1771      C1772   1.413       .  A
C1772      N1773   1.431       .  S
N1773      O1777   1.261       .  A
N1773      O1778   1.262       .  A
N1776      O1780   1.262       .  A
N1776      O1779   1.262       .  A
C1781      C1782   1.397       .  A
C1781      C1786   1.397       .  A
C1781      H1788   1.084       .  S
C1782      C1783   1.410       .  A
C1783      N1790   1.438       .  S
C1783      C1784   1.399       .  A
C1784      C1785   1.404       .  A
C1784      H1789   1.083       .  S
C1785      C1786   1.413       .  A
C1786      N1787   1.428       .  S
N1787      O1791   1.262       .  A
N1787      O1792   1.261       .  A
N1790      O1794   1.262       .  A
C1795      C1796   1.410       .  A
C1795      C1800   1.407       .  A
C1795      H1802   1.084       .  S
C1796      C1797   1.412       .  A
C1797      N1804   1.435       .  S
C1797      C1798   1.402       .  A
C1798      C1799   1.411       .  A
C1798      H1803   1.083       .  S
C1799      C1800   1.413       .  A
C1800      N1801   1.428       .  S
N1801      O1805   1.261       .  A
N1801      O1806   1.262       .  A
N1804      O1808   1.263       .  A
N1804      O1807   1.263       .  A
C1809      C1810   1.396       .  A
C1809      C1814   1.398       .  A
C1809      H1816   1.086       .  S
C1810      C1811   1.411       .  A
C1811      N1818   1.430       .  S
C1811      C1812   1.407       .  A
C1812      C1813   1.402       .  A
C1812      H1817   1.085       .  S
C1813      C1814   1.412       .  A
C1814      N1815   1.431       .  S
N1815      O1819   1.262       .  A
N1815      O1820   1.262       .  A
N1818      O1822   1.262       .  A
N1818      O1821   1.262       .  A
C1823      C1824   1.394       .  A
C1823      C1828   1.395       .  A
C1823      H1830   1.085       .  S
C1824      C1825   1.408       .  A
C1825      N1832   1.430       .  S
C1825      C1826   1.406       .  A
C1826      C1827   1.404       .  A
C1826      H1831   1.084       .  S
C1827      C1828   1.419       .  A
C1828      N1829   1.434       .  S
N1829      O1833   1.263       .  A
N1829      O1834   1.262       .  A
N1832      O1836   1.262       .  A
N1832      O1835   1.262       .  A
C1837      C1838   1.402       .  A
C1837      C1842   1.398       .  A
C1837      H1844   1.086       .  S
C1838      C1839   1.409       .  A
C1839      C1840   1.399       .  A
C1840      C1841   1.402       .  A
C1840      H1845   1.088       .  S
C1841      C1842   1.409       .  A
C1842      N1843   1.436       .  S
N1843      O1847   1.263       .  A
N1843      O1848   1.262       .  A
N1846      O1850   1.262       .  A
N1846      O1849   1.262       .  A
C1851      C1852   1.405       .  A
C1851      C1856   1.410   1_655  A
C1851      H1858   1.083       .  S
C1852      C1853   1.418   1_556  A
C1853      N1860   1.431       .  S
C1853      C1854   1.402       .  A
C1854      C1855   1.401       .  A
C1855      C1856   1.416   1_654  A
C1856      N1857   1.438       .  S
N1857      O1861   1.263       .  A
N1860      O1864   1.262       .  A
C1865      C1866   1.401       .  A
C1865      C1870   1.400       .  A
C1865      H1872   1.084       .  S
C1867      N1874   1.430       .  S
C1867      C1868   1.402       .  A
C1868      H1873   1.084       .  S
C1869      C1870   1.410       .  A
N1871      O1875   1.262   1_545  A
N1871      O1876   1.262   1_545  A
N1874      O1878   1.262   1_655  A
N1874      O1877   1.262       .  A
C1879      C1880   1.405       .  A
C1879      C1884   1.399       .  A
C1879      H1886   1.085       .  S
C1880      C1881   1.412       .  A
C1881      C1882   1.405       .  A
C1882      C1883   1.402       .  A
C1882      H1887   1.088       .  S
C1883      C1884   1.405       .  A
C1884      N1885   1.433       .  S
N1885      O1889   1.262       .  A
N1885      O1890   1.262       .  A
N1888      O1892   1.263       .  A
N1888      O1891   1.263       .  A
C1893      C1894   1.400       .  A
C1893      C1898   1.397       .  A
C1894      C1895   1.407       .  A
C1895      N1902   1.433       .  S
C1895      C1896   1.405       .  A
C1896      C1897   1.410       .  A
C1896      H1901   1.084       .  S
C1897      C1898   1.413       .  A
C1898      N1899   1.429       .  S
N1899      O1904   1.262       .  A
N1902      O1906   1.262       .  A
C1907      C1908   1.408       .  A
C1907      C1912   1.410       .  A
C1907      H1914   1.084       .  S
C1909      N1916   1.432       .  S
C1909      C1910   1.393       .  A
C1910      H1915   1.085       .  S
C1911      C1912   1.410       .  A
C1912      N1913   1.429       .  S
N1913      O1917   1.262       .  A
N1913      O1918   1.262       .  A
N1916      O1920   1.262       .  A
N1916      O1919   1.262       .  A
