geometry optimzed in LAMMPS
_audit_creation_date              2020-12-01 
_audit_creation_method            'lammps2cif' 
_symmetry_space_group_name_H-M    'P1' 
_symmetry_Int_Tables_number       1 
_symmetry_cell_setting            triclinic 
loop_ 
_symmetry_equiv_pos_as_xyz 
  x,y,z 
_cell_length_a                    53.34034447 
_cell_length_b                    53.42715326113267 
_cell_length_c                    84.08323988636934 
_cell_angle_alpha                 90.01419560087051 
_cell_angle_beta                  89.96628168166772 
_cell_angle_gamma                 119.89791514253292 
loop_ 
_atom_site_label 
_atom_site_type_symbol 
_atom_site_fract_x 
_atom_site_fract_y 
_atom_site_fract_z 
_atom_site_charge 
Zn1        Zn  0.18442165  0.37256195  0.62506576     1.49700
Zn2        Zn  0.18788241  0.31486544  0.62596384     1.49400
Zn3        Zn  0.16713676  0.33466894  0.65716817     1.49100
Zn4        Zn  0.12666121  0.31159531  0.62596834     1.49500
O5          O  0.16650562  0.33338337  0.63367334    -1.83900
O6          O  0.21904530  0.38170769  0.61153471    -0.74600
O7          O  0.20170213  0.30092972  0.64428523    -0.74400
O8          O  0.18672421  0.37630897  0.66495898    -0.73900
O9          O  0.22225839  0.34192096  0.61256442    -0.74600
O10         O  0.19745963  0.40169018  0.64257480    -0.74200
O11         O  0.18827972  0.31464057  0.66611684    -0.74800
O12         O  0.09894602  0.29785050  0.64435245    -0.74100
O13         O  0.16296062  0.28035031  0.61228238    -0.74900
O14         O  0.12613527  0.31439397  0.66604901    -0.74300
O15         O  0.11997664  0.27737314  0.61248639    -0.74800
O16         O  0.11653420  0.33618860  0.61227374    -0.74700
O17         O  0.15692547  0.37857580  0.61141275    -0.74500
C18         C  0.23153658  0.36759596  0.60762999     0.77300
C19         C  0.20051454  0.30208643  0.65937782     0.77800
C20         C  0.19719958  0.40044104  0.65768818     0.76800
C21         C  0.10137338  0.30079320  0.65940553     0.77200
C22         C  0.13659837  0.26799250  0.60796282     0.78300
C23         C  0.13067478  0.36217875  0.60741276     0.77300
C24         C  0.33325721  0.16778185  0.72089289     0.45700
H25         H  0.33334886  0.16888902  0.70771164    -0.03400
C26         C  0.33307007  0.16604386  0.75188199     0.45700
H27         H  0.33323586  0.16524367  0.76508585    -0.03400
C28         C  0.31630667  0.13686545  0.72762831    -0.17100
C29         C  0.36365577  0.18117926  0.72822324    -0.16800
C30         C  0.31932081  0.18386262  0.72869949    -0.17200
C31         C  0.31665370  0.13609081  0.74402465    -0.17200
C32         C  0.36345930  0.17982600  0.74453156    -0.16700
C33         C  0.31950146  0.18335171  0.74507169    -0.17100
Zn34       Zn  0.20616423  0.35634901  0.83085057     1.49700
Zn35       Zn  0.14787521  0.29423998  0.83024937     1.49400
Zn36       Zn  0.16738048  0.33299051  0.86189044     1.49100
Zn37       Zn  0.14461847  0.35271668  0.83200728     1.49500
O38         O  0.16642951  0.33393622  0.83867300    -1.83900
O39         O  0.21587509  0.33206065  0.81663558    -0.74600
O40         O  0.13545597  0.26489207  0.84813980    -0.74400
O41         O  0.20812397  0.35262853  0.87039186    -0.73900
O42         O  0.17614869  0.28883789  0.81648948    -0.74600
O43         O  0.23517206  0.36993686  0.84876582    -0.74200
O44         O  0.14766086  0.29218247  0.86981382    -0.74800
O45         O  0.12900621  0.36392419  0.85090298    -0.74100
O46         O  0.11150277  0.28485009  0.81771785    -0.74900
O47         O  0.14696258  0.35234602  0.87161393    -0.74300
O48         O  0.11026179  0.32576846  0.81891026    -0.74800
O49         O  0.16954329  0.38916596  0.81946503    -0.74700
O50         O  0.21243819  0.39183413  0.81907201    -0.74500
C51         C  0.20234299  0.30567756  0.81234614     0.77300
C52         C  0.13653403  0.26747479  0.86323325     0.77800
C53         C  0.23282968  0.36653166  0.86378090     0.76800
C54         C  0.13221248  0.36296174  0.86585189     0.77200
C55         C  0.09931285  0.29960260  0.81446350     0.78300
C56         C  0.19618654  0.40219712  0.81558260     0.77300
Zn57       Zn  0.29456141  0.14918659  0.33301192     1.49700
Zn58       Zn  0.35599304  0.20849782  0.33149391     1.49400
Zn59       Zn  0.33784553  0.16781318  0.36184460     1.49100
Zn60       Zn  0.35293835  0.14583766  0.33045109     1.49500
O61         O  0.33543792  0.16798074  0.33888399    -1.83900
O62         O  0.28689886  0.17639706  0.32013971    -0.74600
O63         O  0.37203474  0.23663294  0.35027322    -0.74400
O64         O  0.29969457  0.15259200  0.37223878    -0.73900
O65         O  0.32877296  0.21755206  0.31848426    -0.74600
O66         O  0.26820696  0.13698611  0.35240371    -0.74200
O67         O  0.36259763  0.20674115  0.37055023    -0.74800
O68         O  0.36494087  0.12761998  0.34813610    -0.74100
O69         O  0.39104361  0.21532494  0.31836785    -0.74900
O70         O  0.35377700  0.14384381  0.36966368    -0.74300
O71         O  0.38899692  0.17264990  0.31806796    -0.74800
O72         O  0.32440766  0.11305362  0.31632186    -0.74700
O73         O  0.28352633  0.11402148  0.31947215    -0.74500
C74         C  0.30181069  0.20235761  0.31526501     0.77300
C75         C  0.37385017  0.23215426  0.36502831     0.77800
C76         C  0.27383824  0.14049688  0.36723692     0.76800
C77         C  0.36369510  0.12911909  0.36322687     0.77200
C78         C  0.40161945  0.19937680  0.31439387     0.78300
C79         C  0.29745815  0.10255964  0.31359052     0.77300
C80         C  0.16839111  0.33686833  0.25098319     0.45700
H81         H  0.16831368  0.33785702  0.26417882    -0.03400
C82         C  0.16802381  0.33408240  0.21997945     0.45700
H83         H  0.16799717  0.33290587  0.20678406    -0.03400
C84         C  0.18425136  0.32166879  0.24432718    -0.17100
C85         C  0.13783559  0.32067310  0.24374202    -0.16800
C86         C  0.18281398  0.36666396  0.24290147    -0.17200
C87         C  0.18392688  0.32007409  0.22800591    -0.17200
C88         C  0.13764357  0.31871843  0.22741798    -0.16700
C89         C  0.18296432  0.36521203  0.22653545    -0.17100
Zn90       Zn  0.35515235  0.14795814  0.14126872     1.49700
Zn91       Zn  0.33007675  0.16142688  0.11011995     1.49400
Zn92       Zn  0.29405340  0.14711156  0.14221195     1.49100
Zn93       Zn  0.35416265  0.20713308  0.13818704     1.49500
O94         O  0.33330241  0.16588300  0.13311226    -1.83900
O95         O  0.36734717  0.13078831  0.12342690    -0.74600
O96         O  0.28916421  0.14151069  0.10306125    -0.74400
O97         O  0.28788472  0.11363303  0.15625248    -0.73900
O98         O  0.34748345  0.13847172  0.10217929    -0.74600
O99         O  0.33050817  0.11548363  0.15634488    -0.74200
O100        O  0.26286541  0.13124657  0.12502147    -0.74800
O101        O  0.32910899  0.21745942  0.15147432    -0.74100
O102        O  0.34989366  0.19930201  0.09875192    -0.74900
O103        O  0.28826130  0.17592618  0.15513788    -0.74300
O104        O  0.36605412  0.23160292  0.11820352    -0.74800
O105        O  0.39086266  0.21810581  0.15042081    -0.74700
O106        O  0.39151382  0.17703382  0.15263299    -0.74500
C107        C  0.36207356  0.12827541  0.10855694     0.77300
C108        C  0.26474825  0.13082268  0.10991532     0.77800
C109        C  0.30419893  0.10385618  0.16078896     0.76800
C110        C  0.30378128  0.20308414  0.15737837     0.77200
C111        C  0.36310972  0.22538267  0.10343765     0.78300
C112        C  0.40299942  0.20407031  0.15515721     0.77300
Zn113      Zn  0.04040225  0.02169127  0.97860491     1.49700
Zn114      Zn  0.48160760  0.46018896  0.97957399     1.49400
Zn115      Zn  0.99999156  0.00278524  0.00902347     1.49100
Zn116      Zn  0.47871323  0.01898459  0.97733900     1.49500
O117        O  0.00014048  0.00090248  0.98596452    -1.83900
O118        O  0.04983148  0.49491742  0.96646314    -0.74600
O119        O  0.46837538  0.43348182  0.99870331    -0.74400
O120        O  0.03964203  0.02435657  0.01796651    -0.73900
O121        O  0.00917986  0.45252718  0.96674587    -0.74600
O122        O  0.06873252  0.03847195  0.99701732    -0.74200
O123        O  0.48110182  0.46381355  0.01904057    -0.74800
O124        O  0.46228445  0.03291682  0.99491652    -0.74100
O125        O  0.44696672  0.44981229  0.96562508    -0.74900
O126        O  0.47915199  0.02259647  0.01654755    -0.74300
O127        O  0.44585611  0.49070475  0.96337057    -0.74800
O128        O  0.00494817  0.05337476  0.96367408    -0.74700
O129        O  0.04706629  0.05429516  0.96378963    -0.74500
C130        C  0.03547535  0.46837933  0.96253974     0.77300
C131        C  0.46970531  0.43826009  0.01361861     0.77800
C132        C  0.06487885  0.03736653  0.01202369     0.76800
C133        C  0.46505653  0.03317602  0.00998891     0.77200
C134        C  0.43579639  0.46414062  0.95993374     0.82700
C135        C  0.03117657  0.06446659  0.95915224     0.77300
Zn136      Zn  0.99989865  0.00154141  0.46281765     1.49700
Zn137      Zn  0.47901556  0.01794431  0.49407557     1.49400
Zn138      Zn  0.48188901  0.45907492  0.49219819     1.49100
Zn139      Zn  0.04099775  0.02087121  0.49294422     1.49500
O140        O  0.00048850  0.99982575  0.48576221    -1.83900
O141        O  0.48126222  0.02321481  0.45499852    -0.74600
O142        O  0.44586005  0.48982180  0.50784124    -0.74400
O143        O  0.46739852  0.43203028  0.47305997    -0.73900
O144        O  0.46288416  0.03200260  0.47649516    -0.74600
O145        O  0.47804774  0.46279940  0.45309777    -0.74200
O146        O  0.44749889  0.44912795  0.50635769    -0.74800
O147        O  0.04958791  0.49466989  0.50629083    -0.74100
O148        O  0.00521454  0.05237439  0.50751437    -0.74900
O149        O  0.00971336  0.45166107  0.50499387    -0.74300
O150        O  0.04820905  0.05515836  0.50667889    -0.74800
O151        O  0.06932168  0.03451796  0.47427565    -0.74700
O152        O  0.03927924  0.01953604  0.45374623    -0.74500
C153        C  0.46653970  0.03314555  0.46147986     0.77300
C154        C  0.43591607  0.46340683  0.51157961     0.77800
C155        C  0.46688893  0.43715432  0.45828287     0.76800
C156        C  0.03551496  0.46794739  0.50989166     0.77200
C157        C  0.03177529  0.06461501  0.51150754     0.78300
C158        C  0.06477820  0.03170646  0.45931563     0.77300
C159        C  0.23846255  0.11795252  0.09984849    -0.03000
C160        C  0.21066035  0.10619532  0.10647633    -0.05600
C161        C  0.18622912  0.09430432  0.09663083    -0.20700
C162        C  0.18915434  0.09428490  0.08002715     0.25000
C163        C  0.21693817  0.10570878  0.07344472    -0.18200
C164        C  0.24123422  0.11745185  0.08322857    -0.08200
C165        C  0.16289450  0.08124429  0.06990117    -0.18500
C166        C  0.16293075  0.08966050  0.05477343    -0.23300
C167        C  0.13730952  0.07622772  0.04413720     0.27100
C168        C  0.14166313  0.07988635  0.02762702    -0.20100
C169        C  0.11825156  0.06732865  0.01712215    -0.09700
C170        C  0.08991209  0.05108399  0.02295630    -0.10200
C171        C  0.08551941  0.04784361  0.03950049    -0.03200
C172        C  0.10888334  0.06030486  0.04997870    -0.18300
H173        H  0.20779338  0.10617890  0.11922512     0.10800
H174        H  0.16497579  0.08531292  0.10198227     0.10900
H175        H  0.22005623  0.10510496  0.06077051     0.10500
H176        H  0.26228621  0.12604141  0.07769809     0.11600
H177        H  0.14316952  0.06435743  0.07522264     0.11700
H178        H  0.18281091  0.10685965  0.04971344     0.13600
H179        H  0.16333767  0.09225888  0.02281681     0.10200
H180        H  0.12234778  0.07032487  0.00445649     0.12200
H181        H  0.06392457  0.03560238  0.04441819     0.08900
H182        H  0.10437832  0.05767963  0.06258397     0.11600
C183        C  0.37540731  0.24877630  0.09143922    -0.03000
C184        C  0.36962335  0.24247836  0.07515925    -0.05600
C185        C  0.38151024  0.26453161  0.06382533    -0.20700
C186        C  0.39933004  0.29334850  0.06848772     0.25000
C187        C  0.40550654  0.29957954  0.08476722    -0.18200
C188        C  0.39351048  0.27755776  0.09609909    -0.08200
C189        C  0.41173709  0.31606904  0.05601723    -0.18500
C190        C  0.42117824  0.34416841  0.05898666    -0.23300
C191        C  0.43400020  0.36751912  0.04686949     0.27100
C192        C  0.44815133  0.39621311  0.05222437    -0.20100
C193        C  0.45994740  0.41910120  0.04144325    -0.09700
C194        C  0.45778316  0.41385257  0.02497967    -0.10200
C195        C  0.44382961  0.38517796  0.01956508    -0.03200
C196        C  0.43195725  0.36222195  0.03036846    -0.18300
H197        H  0.35586040  0.22048465  0.07115003     0.10800
H198        H  0.37664386  0.25907533  0.05137290     0.10900
H199        H  0.42005603  0.32127074  0.08887433     0.10500
H200        H  0.39876126  0.28305843  0.10851055     0.11600
H201        H  0.41262756  0.30901804  0.04405808     0.11700
H202        H  0.41954442  0.35075535  0.07095867     0.13600
H203        H  0.45004052  0.40098307  0.06483305     0.10200
H204        H  0.47062347  0.44094351  0.04604702     0.12200
H205        H  0.44174269  0.38044145  0.00695622     0.08900
H206        H  0.42078857  0.34057264  0.02561302     0.11600
C207        C  0.37321135  0.11358147  0.09827853    -0.03000
C208        C  0.39446980  0.10750331  0.10376686    -0.05600
C209        C  0.40574528  0.09482343  0.09361957    -0.20700
C210        C  0.39617092  0.08823517  0.07782144     0.25000
C211        C  0.37425220  0.09346710  0.07249437    -0.18200
C212        C  0.36300867  0.10612187  0.08260409    -0.08200
C213        C  0.40928883  0.07568959  0.06729134    -0.18500
C214        C  0.41170691  0.07982099  0.05141634    -0.23300
C215        C  0.42598879  0.06833090  0.04090103     0.27100
C216        C  0.41970061  0.06527045  0.02455122    -0.20100
C217        C  0.43249165  0.05410952  0.01434915    -0.09700
C218        C  0.45190465  0.04590390  0.02035521    -0.10200
C219        C  0.45877769  0.04977458  0.03663439    -0.03200
C220        C  0.44619305  0.06102836  0.04675837    -0.18300
H221        H  0.40272295  0.11298303  0.11578272     0.10800
H222        H  0.42243959  0.09069248  0.09801839     0.10900
H223        H  0.36555625  0.08762765  0.06059547     0.10500
H224        H  0.34628011  0.11009891  0.07810289     0.11600
H225        H  0.41798488  0.06348575  0.07303224     0.11700
H226        H  0.40292550  0.09208748  0.04579901     0.13600
H227        H  0.40454606  0.07117540  0.01969371     0.10200
H228        H  0.42693799  0.05158726  0.00184394     0.12200
H229        H  0.47410049  0.04421749  0.04161884     0.08900
H230        H  0.45278870  0.06427458  0.05907960     0.11600
C231        C  0.43127761  0.21958218  0.16348184    -0.03000
C232        C  0.44405528  0.24923066  0.16685452    -0.05600
C233        C  0.47115324  0.26401223  0.17421027    -0.20700
C234        C  0.48611045  0.24958521  0.17847076     0.25000
C235        C  0.47336797  0.21991178  0.17502676    -0.18200
C236        C  0.44626747  0.20512183  0.16767778    -0.08200
C237        C  0.01525902  0.26645321  0.18591609    -0.18500
C238        C  0.02800593  0.25444231  0.19440855    -0.23300
C239        C  0.05689879  0.27123691  0.20210903     0.27100
C240        C  0.06375847  0.25847078  0.21470041    -0.20100
C241        C  0.09035628  0.27349121  0.22249168    -0.09700
C242        C  0.11075078  0.30176503  0.21791895    -0.10200
C243        C  0.10458536  0.31408872  0.20485981    -0.03200
C244        C  0.07790267  0.29908400  0.19703104    -0.18300
H245        H  0.43321282  0.26109756  0.16371785     0.10800
H246        H  0.48049533  0.28689646  0.17658601     0.10900
H247        H  0.48443862  0.20805747  0.17760614     0.10500
H248        H  0.43724139  0.18237153  0.16506746     0.11600
H249        H  0.02593811  0.28979756  0.18489469     0.11700
H250        H  0.01624213  0.23135914  0.19663071     0.13600
H251        H  0.04825691  0.23689729  0.21871236     0.10200
H252        H  0.09483914  0.26322078  0.23232580     0.12200
H253        H  0.12007002  0.33567233  0.20095867     0.08900
H254        H  0.07396507  0.30931008  0.18701761     0.11600
C255        C  0.29213088  0.07779629  0.17098299    -0.03000
C256        C  0.31049166  0.07105833  0.17968418    -0.05600
C257        C  0.29916944  0.04532995  0.18835014    -0.20700
C258        C  0.26938739  0.02546582  0.18816355     0.25000
C259        C  0.25090172  0.03261257  0.17987284    -0.18200
C260        C  0.26216740  0.05855669  0.17142825    -0.08200
C261        C  0.25832259  0.49760478  0.19675421    -0.18500
C262        C  0.23504140  0.47296055  0.19178835    -0.23300
C263        C  0.22331218  0.44456464  0.19997618     0.27100
C264        C  0.19494920  0.42279259  0.19642689    -0.20100
C265        C  0.18229036  0.39633546  0.20445064    -0.09700
C266        C  0.19776084  0.39108459  0.21614983    -0.10200
C267        C  0.22675061  0.41198983  0.21898271    -0.03200
C268        C  0.23939329  0.43853228  0.21105459    -0.18300
H269        H  0.33367962  0.08558219  0.17967601     0.10800
H270        H  0.31380167  0.04051514  0.19483745     0.10900
H271        H  0.22772160  0.01825766  0.17991686     0.10500
H272        H  0.24746013  0.06319106  0.16488347     0.11600
H273        H  0.27044331  0.49750957  0.20708164     0.11700
H274        H  0.22356256  0.47355452  0.18125198     0.13600
H275        H  0.18219029  0.42662726  0.18778882     0.10200
H276        H  0.15995913  0.38060562  0.20206601     0.12200
H277        H  0.23924560  0.40812323  0.22777050     0.08900
H278        H  0.26165723  0.45412204  0.21374942     0.11600
C279        C  0.29205173  0.21848791  0.16676794    -0.03000
C280        C  0.30945750  0.24804864  0.17015185    -0.05600
C281        C  0.29821624  0.26294395  0.17843469    -0.20700
C282        C  0.26925323  0.24880568  0.18344716     0.25000
C283        C  0.25192304  0.21904163  0.18035925    -0.18200
C284        C  0.26320634  0.20409943  0.17208198    -0.08200
C285        C  0.25843553  0.26586686  0.19214405    -0.18500
C286        C  0.23019491  0.25763004  0.19380640    -0.23300
C287        C  0.21952873  0.27499888  0.20234416     0.27100
C288        C  0.19104681  0.26893416  0.19958498    -0.20100
C289        C  0.17980994  0.28411913  0.20763252    -0.09700
C290        C  0.19670019  0.30542531  0.21877947    -0.10200
C291        C  0.22528847  0.31186614  0.22143250    -0.03200
C292        C  0.23654509  0.29668316  0.21342754    -0.18300
H293        H  0.33181402  0.25981065  0.16631428     0.10800
H294        H  0.31216879  0.28574464  0.18077931     0.10900
H295        H  0.22977497  0.20703333  0.18442972     0.10500
H296        H  0.24925176  0.18130113  0.16975755     0.11600
H297        H  0.27467649  0.28673522  0.19664547     0.11700
H298        H  0.21402114  0.23791065  0.18814502     0.13600
H299        H  0.17737044  0.25228063  0.19120688     0.10200
H300        H  0.15766815  0.27873399  0.20544464     0.12200
H301        H  0.23888712  0.32853119  0.22980693     0.08900
H302        H  0.25831363  0.30169434  0.21627365     0.11600
C303        C  0.19538933  0.39408816  0.25222587    -0.03000
C304        C  0.21276509  0.39773698  0.26549885    -0.05600
C305        C  0.22685875  0.42414614  0.27350268    -0.20700
C306        C  0.22348332  0.44743811  0.26866835     0.25000
C307        C  0.20510750  0.44350494  0.25572933    -0.18200
C308        C  0.19096538  0.41697883  0.24772403    -0.08200
C309        C  0.24046229  0.47554021  0.27708391    -0.18500
C310        C  0.23377251  0.49676889  0.27711487    -0.23300
C311        C  0.25084404  0.02423753  0.28609604     0.27100
C312        C  0.23702446  0.03917260  0.29144763    -0.20100
C313        C  0.25220261  0.06471926  0.30020048    -0.09700
C314        C  0.28174071  0.07615937  0.30366339    -0.10200
C315        C  0.29579403  0.06163206  0.29792046    -0.03200
C316        C  0.28056225  0.03599956  0.28922515    -0.18300
H317        H  0.21612406  0.38042576  0.26947516     0.10800
H318        H  0.24072489  0.42646265  0.28347366     0.10900
H319        H  0.20214122  0.46095020  0.25146447     0.10500
H320        H  0.17698681  0.41454688  0.23780992     0.11600
H321        H  0.25857444  0.47816790  0.28422367     0.11700
H322        H  0.21419953  0.49335975  0.27124499     0.13600
H323        H  0.21423814  0.03076865  0.28908120     0.10200
H324        H  0.24068527  0.07537767  0.30436761     0.12200
H325        H  0.31855487  0.06993303  0.30024811     0.08900
H326        H  0.29222877  0.52566294  0.28485585     0.11600
C327        C  0.42969944  0.21224364  0.30577983    -0.03000
C328        C  0.44109186  0.19479713  0.30076449    -0.05600
C329        C  0.46838006  0.20702261  0.29360485    -0.20700
C330        C  0.48495496  0.23695003  0.29117509     0.25000
C331        C  0.47351062  0.25444193  0.29611476    -0.18200
C332        C  0.44619263  0.24220926  0.30327498    -0.08200
C333        C  0.01440657  0.24914896  0.28405688    -0.18500
C334        C  0.02817525  0.27496337  0.27667071    -0.23300
C335        C  0.05715635  0.28706143  0.26907347     0.27100
C336        C  0.06409267  0.30700253  0.25666817    -0.20100
C337        C  0.09070936  0.31864741  0.24891454    -0.09700
C338        C  0.11107560  0.31059468  0.25335241    -0.10200
C339        C  0.10494432  0.29179082  0.26626784    -0.03200
C340        C  0.07810902  0.27997224  0.27405100    -0.18300
H341        H  0.42907516  0.17164728  0.30255330     0.10800
H342        H  0.47663580  0.19301423  0.29000508     0.10900
H343        H  0.48583597  0.27767251  0.29492542     0.10500
H344        H  0.43828782  0.25634078  0.30717590     0.11600
H345        H  0.02440450  0.23573561  0.28427538     0.11700
H346        H  0.01705579  0.28714487  0.27513683     0.13600
H347        H  0.04861496  0.31320354  0.25274456     0.10200
H348        H  0.09520705  0.33356860  0.23917144     0.12200
H349        H  0.12050905  0.28557200  0.26998195     0.08900
H350        H  0.07390288  0.26543105  0.28393109     0.11600
C351        C  0.19800202  0.30942259  0.25467319    -0.03000
C352        C  0.22381819  0.32773920  0.26265476    -0.05600
C353        C  0.23824689  0.31633191  0.27128771    -0.20700
C354        C  0.22733508  0.28636386  0.27204338     0.25000
C355        C  0.20099147  0.26799184  0.26423092    -0.18200
C356        C  0.18661718  0.27948757  0.25557780    -0.08200
C357        C  0.24423105  0.27556610  0.28108106    -0.18500
C358        C  0.23950029  0.24830712  0.28027043    -0.23300
C359        C  0.25648211  0.23766432  0.28926180     0.27100
C360        C  0.24379634  0.20788878  0.29197110    -0.20100
C361        C  0.25867428  0.19659778  0.30021944    -0.09700
C362        C  0.28692226  0.21476146  0.30586996    -0.10200
C363        C  0.30001871  0.24456469  0.30285110    -0.03200
C364        C  0.28496370  0.25594250  0.29466849    -0.18300
H365        H  0.23347369  0.35089196  0.26167139     0.10800
H366        H  0.25841461  0.33107174  0.27711877     0.10900
H367        H  0.19120112  0.24479410  0.26470318     0.10500
H368        H  0.16674483  0.26503837  0.24940632     0.11600
H369        H  0.26154092  0.29104298  0.28861977     0.11700
H370        H  0.22206325  0.23253617  0.27295078     0.13600
H371        H  0.22205421  0.19323411  0.28782173     0.10200
H372        H  0.24792191  0.17351752  0.30219906     0.12200
H373        H  0.32178324  0.25914101  0.30696510     0.08900
H374        H  0.29589050  0.27891458  0.29242318     0.11600
C375        C  0.25024095  0.13028263  0.37907669    -0.03000
C376        C  0.25676203  0.13708061  0.39526202    -0.05600
C377        C  0.23480106  0.12682409  0.40663166    -0.20700
C378        C  0.20585258  0.10926557  0.40215009     0.25000
C379        C  0.19919611  0.10305145  0.38589160    -0.18200
C380        C  0.22120467  0.11340566  0.37448647    -0.08200
C381        C  0.18338796  0.09830498  0.41477823    -0.18500
C382        C  0.15720106  0.07471550  0.41298560    -0.23300
C383        C  0.13442610  0.06389997  0.42538842     0.27100
C384        C  0.10559971  0.04770858  0.42047064    -0.20100
C385        C  0.08322389  0.03727602  0.43154123    -0.09700
C386        C  0.08910554  0.04252527  0.44788952    -0.10200
C387        C  0.11804157  0.05807774  0.45292837    -0.03200
C388        C  0.14055819  0.06870497  0.44176775    -0.18300
H389        H  0.27892708  0.15027813  0.39920458     0.10800
H390        H  0.24049739  0.13224990  0.41901455     0.10900
H391        H  0.17708606  0.09052971  0.38182643     0.10500
H392        H  0.21549798  0.10804283  0.36210716     0.11600
H393        H  0.18895057  0.10989203  0.42599481     0.11700
H394        H  0.15159986  0.06304465  0.40180629     0.13600
H395        H  0.10032359  0.04345619  0.40796387     0.10200
H396        H  0.06120645  0.02512876  0.42721089     0.12200
H397        H  0.12325618  0.06214654  0.46544093     0.08900
H398        H  0.16261299  0.08028876  0.44603457     0.11600
C399        C  0.45344916  0.41326041  0.44667088    -0.03000
C400        C  0.44843431  0.41884587  0.43098365    -0.05600
C401        C  0.43718381  0.39687653  0.41965308    -0.20700
C402        C  0.43111705  0.36897469  0.42365602     0.25000
C403        C  0.43514200  0.36304982  0.43948014    -0.18200
C404        C  0.44621098  0.38502991  0.45088178    -0.08200
C405        C  0.42042872  0.34669017  0.41102944    -0.18500
C406        C  0.42464575  0.32391792  0.41133681    -0.23300
C407        C  0.41326702  0.30135464  0.39890509     0.27100
C408        C  0.40455757  0.27297029  0.40338295    -0.20100
C409        C  0.39222713  0.25072271  0.39227343    -0.09700
C410        C  0.38872592  0.25643509  0.37632739    -0.10200
C411        C  0.39867286  0.28510481  0.37165670    -0.03200
C412        C  0.41083981  0.30742448  0.38286758    -0.18300
H413        H  0.45341585  0.44031456  0.42739227     0.10800
H414        H  0.43383749  0.40185110  0.40761994     0.10900
H415        H  0.42961664  0.34149432  0.44315135     0.10500
H416        H  0.44952893  0.38003138  0.46290577     0.11600
H417        H  0.40935233  0.34960368  0.40097873     0.11700
H418        H  0.43564821  0.32082504  0.42134904     0.13600
H419        H  0.40654938  0.26787327  0.41562418     0.10200
H420        H  0.38507969  0.22891276  0.39628121     0.12200
H421        H  0.39659574  0.29020524  0.35944174     0.08900
H422        H  0.41832862  0.32933568  0.37896374     0.11600
C423        C  0.45343947  0.04587513  0.45111489    -0.03000
C424        C  0.43772643  0.05820576  0.45747739    -0.05600
C425        C  0.42541302  0.06997296  0.44739139    -0.20700
C426        C  0.42824333  0.06927150  0.43081173     0.25000
C427        C  0.44434487  0.05732468  0.42449311    -0.18200
C428        C  0.45666776  0.04568342  0.43452346    -0.08200
C429        C  0.41510936  0.08209061  0.42046102    -0.18500
C430        C  0.40736171  0.07388643  0.40524405    -0.23300
C431        C  0.39523576  0.08738848  0.39463950     0.27100
C432        C  0.39814115  0.08611736  0.37808980    -0.20100
C433        C  0.38770922  0.09935658  0.36773579    -0.09700
C434        C  0.37394551  0.11390867  0.37379190    -0.10200
C435        C  0.37027826  0.11434613  0.39034740    -0.03200
C436        C  0.38067061  0.10118780  0.40064150    -0.18300
H437        H  0.43499502  0.05880325  0.47020265     0.10800
H438        H  0.41341202  0.07942776  0.45254394     0.10900
H439        H  0.44803660  0.05739999  0.41184696     0.10500
H440        H  0.46887193  0.03659486  0.42921037     0.11600
H441        H  0.41181140  0.09879594  0.42568657     0.11700
H442        H  0.41062136  0.05709522  0.40009985     0.13600
H443        H  0.40899383  0.07528762  0.37317086     0.10200
H444        H  0.39071862  0.09850208  0.35505294     0.12200
H445        H  0.35935504  0.12496688  0.39543768     0.08900
H446        H  0.37689746  0.10166334  0.41324150     0.11600
C447        C  0.04335830  0.08963780  0.94824635    -0.03000
C448        C  0.02875834  0.10510111  0.94572986    -0.05600
C449        C  0.04022513  0.12891817  0.93553081    -0.20700
C450        C  0.06616913  0.13745122  0.92734366     0.25000
C451        C  0.08085769  0.12204293  0.92980301    -0.18200
C452        C  0.06961501  0.09845232  0.94021979    -0.08200
C453        C  0.07782850  0.16326523  0.91692731    -0.18500
C454        C  0.09382786  0.16675104  0.90384398    -0.23300
C455        C  0.10449128  0.19260721  0.89349614     0.27100
C456        C  0.10704218  0.19001557  0.87703852    -0.20100
C457        C  0.11690240  0.21415180  0.86708474    -0.09700
C458        C  0.12498924  0.24147330  0.87348501    -0.10200
C459        C  0.12273834  0.24402360  0.89000032    -0.03200
C460        C  0.11261519  0.21991532  0.89988286    -0.18300
H461        H  0.00858152  0.09899156  0.95177845     0.10800
H462        H  0.02866031  0.14061409  0.93393249     0.10900
H463        H  0.10128606  0.12852421  0.92396448     0.10500
H464        H  0.08142526  0.08703430  0.94193413     0.11600
H465        H  0.07147919  0.17921069  0.91964466     0.11700
H466        H  0.09775093  0.14954932  0.90008908     0.13600
H467        H  0.10109581  0.16920776  0.87186497     0.10200
H468        H  0.11853952  0.21148891  0.85442285     0.12200
H469        H  0.12893150  0.26475066  0.89535034     0.08900
H470        H  0.11166922  0.22282077  0.91256645     0.11600
C471        C  0.41092884  0.44971857  0.94887585    -0.03000
C472        C  0.39620409  0.41954717  0.94703291    -0.05600
C473        C  0.37299913  0.40598645  0.93645302    -0.20700
C474        C  0.36437593  0.42227002  0.92725008     0.25000
C475        C  0.37906414  0.45245521  0.92904693    -0.18200
C476        C  0.40201533  0.46600805  0.93980406    -0.08200
C477        C  0.33891352  0.40702517  0.91664189    -0.18500
C478        C  0.33574330  0.41854141  0.90307096    -0.23300
C479        C  0.30939006  0.40377905  0.89302484     0.27100
C480        C  0.31143477  0.40960395  0.87665470    -0.20100
C481        C  0.28668233  0.39715273  0.86707498    -0.09700
C482        C  0.25926870  0.37898439  0.87375094    -0.10200
C483        C  0.25728536  0.37312238  0.89013995    -0.03200
C484        C  0.28202901  0.38535063  0.89966765    -0.18300
H485        H  0.40246473  0.40635553  0.95385852     0.10800
H486        H  0.36182453  0.38268369  0.93538391     0.10900
H487        H  0.37245178  0.46557456  0.92243645     0.10500
H488        H  0.41288363  0.48928049  0.94094775     0.11600
H489        H  0.32272031  0.38517109  0.91990529     0.11700
H490        H  0.35327892  0.43914712  0.89895340     0.13600
H491        H  0.33224222  0.42389100  0.87127465     0.10200
H492        H  0.28897776  0.40212066  0.85449145     0.12200
H493        H  0.23652623  0.35928090  0.89567406     0.08900
H494        H  0.27950567  0.38100714  0.91230879     0.11600
C495        C  0.04955730  0.45600261  0.95258610    -0.03000
C496        C  0.07952463  0.47171768  0.94978322    -0.05600
C497        C  0.09264783  0.46077468  0.93973318    -0.20700
C498        C  0.07609197  0.43416433  0.93205392     0.25000
C499        C  0.04621576  0.41807363  0.93512413    -0.18200
C500        C  0.03311507  0.42885914  0.94532922    -0.08200
C501        C  0.09077789  0.42349464  0.92128410    -0.18500
C502        C  0.07759437  0.40628654  0.90870154    -0.23300
C503        C  0.09234565  0.39578639  0.89783366     0.27100
C504        C  0.08238026  0.38837631  0.88214225    -0.20100
C505        C  0.09551399  0.37803873  0.87166133    -0.09700
C506        C  0.11855501  0.37436992  0.87678276    -0.10200
C507        C  0.12827273  0.38140458  0.89254580    -0.03200
C508        C  0.11537317  0.39204364  0.90295833    -0.18300
H509        H  0.09285360  0.49258679  0.95528613     0.10800
H510        H  0.11575900  0.47339789  0.93771724     0.10900
H511        H  0.03296293  0.39704609  0.92979509     0.10500
H512        H  0.01002063  0.41612781  0.94732919     0.11600
H513        H  0.11363491  0.43150307  0.92329369     0.11700
H514        H  0.05559720  0.40074922  0.90576879     0.13600
H515        H  0.06447089  0.39076236  0.87795190     0.10200
H516        H  0.08738582  0.37255141  0.85961736     0.12200
H517        H  0.14593500  0.37872607  0.89684580     0.08900
H518        H  0.12310084  0.39668318  0.91508701     0.11600
C519        C  0.38983457  0.18871803  0.75416167    -0.03000
C520        C  0.40837766  0.17792926  0.75055183    -0.05600
C521        C  0.43477635  0.18848733  0.75843353    -0.20700
C522        C  0.44317916  0.21003510  0.77007093     0.25000
C523        C  0.42383162  0.21974261  0.77424120    -0.18200
C524        C  0.39734216  0.20908976  0.76634383    -0.08200
C525        C  0.47208202  0.22153062  0.77762462    -0.18500
C526        C  0.48658888  0.24789868  0.78434147    -0.23300
C527        C  0.01598261  0.26030996  0.79144019     0.27100
C528        C  0.03169660  0.29016425  0.79420379    -0.20100
C529        C  0.05897977  0.30290660  0.80128406    -0.09700
C530        C  0.07130414  0.28608286  0.80585517    -0.10200
C531        C  0.05572958  0.25618429  0.80301684    -0.03200
C532        C  0.02830357  0.24337744  0.79595693    -0.18300
H533        H  0.40266352  0.16175877  0.74136493     0.10800
H534        H  0.44898057  0.18027110  0.75516320     0.10900
H535        H  0.42896910  0.23549211  0.78357509     0.10500
H536        H  0.38311532  0.21738882  0.76939285     0.11600
H537        H  0.48232615  0.20844390  0.77664536     0.11700
H538        H  0.47719138  0.26182098  0.78401052     0.13600
H539        H  0.02275208  0.30374137  0.79094462     0.10200
H540        H  0.07027134  0.32598552  0.80335128     0.12200
H541        H  0.06441735  0.24255404  0.80660612     0.08900
H542        H  0.01670423  0.22020238  0.79448135     0.11600
C543        C  0.30602849  0.10927471  0.75347906    -0.03000
C544        C  0.31664112  0.09042079  0.75046979    -0.05600
C545        C  0.30563213  0.06438338  0.75876123    -0.20700
C546        C  0.28368655  0.05660290  0.77013478     0.25000
C547        C  0.27380894  0.07605220  0.77352962    -0.18200
C548        C  0.28495400  0.10216945  0.76525915    -0.08200
C549        C  0.27206204  0.02829873  0.77831083    -0.18500
C550        C  0.24543198  0.01397923  0.78481452    -0.23300
C551        C  0.23339779  0.48513434  0.79246488     0.27100
C552        C  0.20328184  0.46791022  0.79410845    -0.20100
C553        C  0.19108949  0.44081966  0.80141907    -0.09700
C554        C  0.20881144  0.43034780  0.80725458    -0.10200
C555        C  0.23895792  0.44763224  0.80567855    -0.03200
C556        C  0.25114291  0.47478048  0.79849161    -0.18300
H557        H  0.33321998  0.09575013  0.74155526     0.10800
H558        H  0.31392834  0.05002126  0.75607412     0.10900
H559        H  0.25764734  0.07132286  0.78258714     0.10500
H560        H  0.27653181  0.11641966  0.76776948     0.11600
H561        H  0.28536065  0.01820453  0.77798818     0.11700
H562        H  0.23114417  0.02290080  0.78378710     0.13600
H563        H  0.18910864  0.47543214  0.78969487     0.10200
H564        H  0.16778852  0.42811774  0.80253238     0.12200
H565        H  0.25325654  0.44043271  0.81029839     0.08900
H566        H  0.27445265  0.48770369  0.79802298     0.11600
C567        C  0.30831963  0.19842108  0.75531073    -0.03000
C568        C  0.28940203  0.18380438  0.76789254    -0.05600
C569        C  0.27592820  0.19655780  0.77621499    -0.20700
C570        C  0.28121529  0.22434841  0.77224878     0.25000
C571        C  0.30149642  0.23962443  0.76015813    -0.18200
C572        C  0.31507182  0.22687206  0.75193466    -0.08200
C573        C  0.26449891  0.23584865  0.78079867    -0.18500
C574        C  0.26698121  0.26191061  0.77814279    -0.23300
C575        C  0.24956236  0.27240899  0.78672351     0.27100
C576        C  0.26074865  0.30227448  0.78826646    -0.20100
C577        C  0.24523773  0.31308652  0.79634477    -0.09700
C578        C  0.21788561  0.29423845  0.80286134    -0.10200
C579        C  0.20628548  0.26433453  0.80093208    -0.03200
C580        C  0.22192013  0.25351054  0.79295425    -0.18300
H581        H  0.28410460  0.16207077  0.77090649     0.10800
H582        H  0.26072910  0.18431636  0.78555685     0.10900
H583        H  0.30680816  0.26116214  0.75669678     0.10500
H584        H  0.33027412  0.23897842  0.74257309     0.11600
H585        H  0.24940318  0.22198089  0.78982240     0.11700
H586        H  0.28292257  0.27683993  0.76983058     0.13600
H587        H  0.28181379  0.31731943  0.78342008     0.10200
H588        H  0.25479079  0.33625351  0.79757258     0.12200
H589        H  0.18527039  0.24923363  0.80579504     0.08900
H590        H  0.21210152  0.23038778  0.79154969     0.11600
C591        C  0.07463535  0.28841607  0.66917137    -0.03000
C592        C  0.07573234  0.29099454  0.68583980    -0.05600
C593        C  0.05015898  0.27958574  0.69477274    -0.20700
C594        C  0.02302215  0.26526703  0.68726395     0.25000
C595        C  0.02203205  0.26320158  0.67057453    -0.18200
C596        C  0.04746262  0.27443985  0.66168951    -0.08200
C597        C  0.49622021  0.25352628  0.69705124    -0.18500
C598        C  0.47036615  0.23207173  0.69199607    -0.23300
C599        C  0.44322270  0.21996140  0.70144682     0.27100
C600        C  0.42059313  0.19222097  0.69767545    -0.20100
C601        C  0.39467607  0.17982986  0.70621712    -0.09700
C602        C  0.39058725  0.19506346  0.71853818    -0.10200
C603        C  0.41284385  0.22317032  0.72206257    -0.03200
C604        C  0.43897714  0.23550628  0.71365858    -0.18300
H605        H  0.09630411  0.30187384  0.69197268     0.10800
H606        H  0.05157139  0.28181721  0.70759952     0.10900
H607        H  0.00172006  0.25344894  0.66421955     0.10500
H608        H  0.04575424  0.27242337  0.64886856     0.11600
H609        H  0.49824297  0.26204182  0.70899204     0.11700
H610        H  0.46903647  0.22173681  0.68067344     0.13600
H611        H  0.42319226  0.17981518  0.68827820     0.10200
H612        H  0.37832541  0.15797820  0.70354237     0.12200
H613        H  0.41003774  0.23550841  0.73141735     0.08900
H614        H  0.45549374  0.25726327  0.71661316     0.11600
C615        C  0.20929781  0.42776411  0.66682340    -0.03000
C616        C  0.20729437  0.42757749  0.68347494    -0.05600
C617        C  0.21890237  0.45351622  0.69195558    -0.20700
C618        C  0.23280496  0.48024636  0.68404334     0.25000
C619        C  0.23436064  0.48037940  0.66731589    -0.18200
C620        C  0.22280985  0.45446526  0.65885283    -0.08200
C621        C  0.24475394  0.00715624  0.69374473    -0.18500
C622        C  0.26232421  0.03396628  0.68805327    -0.23300
C623        C  0.27468207  0.06036409  0.69812622     0.27100
C624        C  0.30009800  0.08492467  0.69308742    -0.20100
C625        C  0.31310146  0.10982290  0.70245907    -0.09700
C626        C  0.30113740  0.11081399  0.71716544    -0.10200
C627        C  0.27452534  0.08689639  0.72165667    -0.03200
C628        C  0.26155740  0.06186988  0.71234154    -0.18300
H629        H  0.19675203  0.40739578  0.68996929     0.10800
H630        H  0.21708896  0.45266919  0.70480428     0.10900
H631        H  0.24408492  0.50021515  0.66057638     0.10500
H632        H  0.22449003  0.45540906  0.64600355     0.11600
H633        H  0.23962937  0.00445690  0.70633613     0.11700
H634        H  0.26949802  0.03691652  0.67579540     0.13600
H635        H  0.31028143  0.08469067  0.68198120     0.10200
H636        H  0.33277131  0.12801392  0.69820121     0.12200
H637        H  0.26357071  0.08748017  0.73235306     0.08900
H638        H  0.24112241  0.04401591  0.71623467     0.11600
C639        C  0.21348279  0.28817238  0.66907019    -0.03000
C640        C  0.21407639  0.28968056  0.68576898    -0.05600
C641        C  0.22605390  0.27603722  0.69467851    -0.20700
C642        C  0.23782907  0.26077245  0.68710511     0.25000
C643        C  0.23696086  0.25903414  0.67041340    -0.18200
C644        C  0.22506789  0.27265320  0.66153363    -0.08200
C645        C  0.24973634  0.24593992  0.69692082    -0.18500
C646        C  0.26988819  0.23980781  0.69152089    -0.23300
C647        C  0.28179900  0.22487659  0.70119691     0.27100
C648        C  0.30949686  0.22946100  0.69760332    -0.20100
C649        C  0.32153352  0.21591798  0.70646016    -0.09700
C650        C  0.30599450  0.19737806  0.71901491    -0.10200
C651        C  0.27782610  0.19180416  0.72223415    -0.03200
C652        C  0.26586317  0.20552892  0.71347854    -0.18300
H653        H  0.20523021  0.30132873  0.69196111     0.10800
H654        H  0.22620564  0.27747831  0.70752645     0.10900
H655        H  0.24484076  0.24665917  0.66412851     0.10500
H656        H  0.22467824  0.27070072  0.64870944     0.11600
H657        H  0.24250323  0.24106059  0.70917645     0.11700
H658        H  0.27923659  0.24727387  0.67981612     0.13600
H659        H  0.32204550  0.24392993  0.68805530     0.10200
H660        H  0.34320847  0.22033367  0.70370305     0.12200
H661        H  0.26511128  0.17686889  0.73157785     0.08900
H662        H  0.24403690  0.20057528  0.71618995     0.11600
C663        C  0.12526333  0.24237105  0.59740692    -0.03000
C664        C  0.14226200  0.22973071  0.59384982    -0.05600
C665        C  0.13177732  0.20572233  0.58382006    -0.20700
C666        C  0.10427450  0.19401135  0.57689559     0.25000
C667        C  0.08705738  0.20640951  0.58060679    -0.18200
C668        C  0.09749257  0.23035629  0.59071660    -0.08200
C669        C  0.09428191  0.16867744  0.56612363    -0.18500
C670        C  0.07386207  0.16175704  0.55487382    -0.23300
C671        C  0.06400403  0.13685196  0.54380023     0.27100
C672        C  0.03723711  0.12652935  0.53618422    -0.20100
C673        C  0.02697836  0.10333691  0.52559993    -0.09700
C674        C  0.04341947  0.09003277  0.52222029    -0.10200
C675        C  0.07055222  0.10073917  0.52953953    -0.03200
C676        C  0.08074838  0.12386841  0.54023736    -0.18300
H677        H  0.16370157  0.23833818  0.59885145     0.10800
H678        H  0.14538868  0.19646427  0.58130338     0.10900
H679        H  0.06536650  0.19751263  0.57598154     0.10500
H680        H  0.08378806  0.23947298  0.59327363     0.11600
H681        H  0.10477121  0.15584705  0.56736272     0.11700
H682        H  0.06355953  0.17475921  0.55363444     0.13600
H683        H  0.02402425  0.13628798  0.53855244     0.10200
H684        H  0.50607951  0.09578930  0.52008920     0.12200
H685        H  0.08380077  0.09105970  0.52712740     0.08900
H686        H  0.10189700  0.13167259  0.54543031     0.11600
C687        C  0.25698282  0.38117776  0.59691510    -0.03000
C688        C  0.26824796  0.40989185  0.59188751    -0.05600
C689        C  0.29160185  0.42245434  0.58136280    -0.20700
C690        C  0.30415281  0.40663416  0.57548763     0.25000
C691        C  0.29319514  0.37799487  0.58070494    -0.18200
C692        C  0.26984611  0.36542790  0.59129015    -0.08200
C693        C  0.32904641  0.42125778  0.56434874    -0.18500
C694        C  0.33781069  0.40726575  0.55443755    -0.23300
C695        C  0.36268889  0.42223326  0.54328509     0.27100
C696        C  0.37574284  0.40694708  0.53729830    -0.20100
C697        C  0.39939080  0.42019753  0.52695803    -0.09700
C698        C  0.41046008  0.44908100  0.52227823    -0.10200
C699        C  0.39700132  0.46421138  0.52797088    -0.03200
C700        C  0.37331409  0.45093943  0.53827004    -0.18300
H701        H  0.25894721  0.42269445  0.59602323     0.10800
H702        H  0.29973256  0.44460364  0.57766734     0.10900
H703        H  0.30273233  0.36526480  0.57689101     0.10500
H704        H  0.26179693  0.34332094  0.59500638     0.11600
H705        H  0.34025430  0.44464877  0.56429888     0.11700
H706        H  0.32671985  0.38386761  0.55452794     0.13600
H707        H  0.36782511  0.38473099  0.54078539     0.10200
H708        H  0.40909542  0.40783144  0.52271430     0.12200
H709        H  0.40472227  0.48635851  0.52444589     0.08900
H710        H  0.36330537  0.46325265  0.54203065     0.11600
C711        C  0.11646303  0.37333316  0.59668697    -0.03000
C712        C  0.08760459  0.35545642  0.59194488    -0.05600
C713        C  0.07454316  0.36550247  0.58128062    -0.20700
C714        C  0.09005716  0.39348542  0.57498664     0.25000
C715        C  0.11869129  0.41172147  0.58006777    -0.18200
C716        C  0.13175021  0.40170880  0.59078169    -0.08200
C717        C  0.07537551  0.40303604  0.56350298    -0.18500
C718        C  0.08965704  0.42367639  0.55249586    -0.23300
C719        C  0.07521185  0.43385880  0.54120420     0.27100
C720        C  0.09154655  0.46145794  0.53452653    -0.20100
C721        C  0.07876354  0.47239969  0.52424410    -0.09700
C722        C  0.04934556  0.45578082  0.52021841    -0.10200
C723        C  0.03317426  0.42775193  0.52648549    -0.03200
C724        C  0.04593711  0.41686765  0.53685623    -0.18300
H725        H  0.07513885  0.33355869  0.59634988     0.10800
H726        H  0.05234827  0.35117314  0.57772546     0.10900
H727        H  0.13100327  0.43381250  0.57597519     0.10500
H728        H  0.15389295  0.41616512  0.59435720     0.11600
H729        H  0.05197155  0.39224465  0.56410338     0.11700
H730        H  0.11307022  0.43426832  0.55191840     0.13600
H731        H  0.11420677  0.47486102  0.53751686     0.10200
H732        H  0.09191928  0.49398099  0.51953335     0.12200
H733        H  0.01052814  0.41430163  0.52352353     0.08900
H734        H  0.03280942  0.39510091  0.54126886     0.11600
Zn735      Zn  0.18442153  0.87256412  0.62506708     1.49700
Zn736      Zn  0.18788073  0.81486621  0.62596433     1.49400
Zn737      Zn  0.16713650  0.83466969  0.65716923     1.49100
Zn738      Zn  0.12666100  0.81159796  0.62596909     1.49500
O739        O  0.16650505  0.83338499  0.63367424    -1.83900
O740        O  0.21904643  0.88171016  0.61153732    -0.74600
O741        O  0.20170168  0.80093110  0.64428531    -0.74400
O742        O  0.18672245  0.87630938  0.66496052    -0.73900
O743        O  0.22225640  0.84192151  0.61256488    -0.74600
O744        O  0.19745707  0.90169116  0.64257656    -0.74200
O745        O  0.18828095  0.81464227  0.66611740    -0.74800
O746        O  0.09894618  0.79785300  0.64435339    -0.74100
O747        O  0.16295807  0.78035044  0.61228348    -0.74900
O748        O  0.12613501  0.81439359  0.66605027    -0.74300
O749        O  0.11997503  0.77737528  0.61248694    -0.74800
O750        O  0.11653558  0.83619263  0.61227474    -0.74700
O751        O  0.15692719  0.87857942  0.61141289    -0.74500
C752        C  0.23153633  0.86759752  0.60763172     0.77300
C753        C  0.20051540  0.80208817  0.65937792     0.77800
C754        C  0.19719664  0.90044154  0.65768992     0.76800
C755        C  0.10137322  0.80079388  0.65940657     0.77200
C756        C  0.13659585  0.76799318  0.60796394     0.78300
C757        C  0.13067631  0.86218241  0.60741320     0.77300
C758        C  0.33325745  0.66778093  0.72089236     0.45700
H759        H  0.33334933  0.66888761  0.70771106    -0.03400
C760        C  0.33306992  0.66604351  0.75188146     0.45700
H761        H  0.33323599  0.66524360  0.76508534    -0.03400
C762        C  0.31630572  0.63686477  0.72762791    -0.17100
C763        C  0.36365579  0.68117695  0.72822284    -0.16800
C764        C  0.31932219  0.68386318  0.72869880    -0.17200
C765        C  0.31665239  0.63609033  0.74402423    -0.17200
C766        C  0.36345885  0.67982435  0.74453109    -0.16700
C767        C  0.31950312  0.68335290  0.74507109    -0.17100
Zn768      Zn  0.20616508  0.85635261  0.83085229     1.49700
Zn769      Zn  0.14787646  0.79424234  0.83025048     1.49400
Zn770      Zn  0.16738120  0.83299350  0.86189184     1.49100
Zn771      Zn  0.14461715  0.85271702  0.83200781     1.49500
O772        O  0.16642991  0.83393858  0.83867422    -1.83900
O773        O  0.21587807  0.83206474  0.81663754    -0.74600
O774        O  0.13545477  0.76489464  0.84814122    -0.74400
O775        O  0.20812503  0.85263250  0.87039368    -0.73900
O776        O  0.17615291  0.78884088  0.81649269    -0.74600
O777        O  0.23517279  0.86994162  0.84876765    -0.74200
O778        O  0.14766163  0.79218516  0.86981527    -0.74800
O779        O  0.12900517  0.86392496  0.85090344    -0.74100
O780        O  0.11150526  0.78485141  0.81771658    -0.74900
O781        O  0.14696339  0.85234978  0.87161478    -0.74300
O782        O  0.11026088  0.82576782  0.81891037    -0.74800
O783        O  0.16954119  0.88916663  0.81946566    -0.74700
O784        O  0.21243754  0.89183777  0.81907435    -0.74500
C785        C  0.20234709  0.80568098  0.81234916     0.77300
C786        C  0.13653378  0.76747738  0.86323469     0.77800
C787        C  0.23283070  0.86653646  0.86378272     0.76800
C788        C  0.13221264  0.86296455  0.86585239     0.77200
C789        C  0.09931394  0.79960274  0.81446245     0.78300
C790        C  0.19618497  0.90219945  0.81558432     0.77300
Zn791      Zn  0.29456047  0.64918632  0.33301169     1.49700
Zn792      Zn  0.35599233  0.70849848  0.33149282     1.49400
Zn793      Zn  0.33784668  0.66781339  0.36184372     1.49100
Zn794      Zn  0.35293730  0.64583752  0.33044996     1.49500
O795        O  0.33543747  0.66798095  0.33888306    -1.83900
O796        O  0.28689771  0.67639707  0.32013979    -0.74600
O797        O  0.37203205  0.73663347  0.35027252    -0.74400
O798        O  0.29969670  0.65259203  0.37223902    -0.73900
O799        O  0.32877186  0.71755175  0.31848242    -0.74600
O800        O  0.26820798  0.63698700  0.35240444    -0.74200
O801        O  0.36259752  0.70674121  0.37054901    -0.74800
O802        O  0.36494009  0.62761878  0.34813475    -0.74100
O803        O  0.39104509  0.71532674  0.31836786    -0.74900
O804        O  0.35378004  0.64384544  0.36966250    -0.74300
O805        O  0.38899644  0.67265077  0.31806719    -0.74800
O806        O  0.32440540  0.61305375  0.31632056    -0.74700
O807        O  0.28352365  0.61402057  0.31947163    -0.74500
C808        C  0.30180915  0.70235709  0.31526417     0.77300
C809        C  0.37384847  0.73215440  0.36502747     0.77800
C810        C  0.27384015  0.64049762  0.36723759     0.76800
C811        C  0.36369651  0.62911940  0.36322558     0.77200
C812        C  0.40162039  0.69937808  0.31439379     0.78300
C813        C  0.29745561  0.60255913  0.31358962     0.77300
C814        C  0.16839430  0.83687279  0.25098306     0.45700
H815        H  0.16831865  0.83786305  0.26417867    -0.03400
C816        C  0.16802349  0.83408367  0.21997935     0.45700
H817        H  0.16799521  0.83290597  0.20678403    -0.03400
C818        C  0.18425309  0.82167189  0.24432688    -0.17100
C819        C  0.13783783  0.82067767  0.24374306    -0.16800
C820        C  0.18281701  0.86666749  0.24290044    -0.17200
C821        C  0.18392710  0.82007542  0.22800560    -0.17200
C822        C  0.13764396  0.81872113  0.22741906    -0.16700
C823        C  0.18296529  0.86521409  0.22653444    -0.17100
Zn824      Zn  0.35515432  0.64795846  0.14126869     1.49700
Zn825      Zn  0.33007388  0.66142479  0.11011963     1.49400
Zn826      Zn  0.29405310  0.64710759  0.14221292     1.49100
Zn827      Zn  0.35416020  0.70713096  0.13818776     1.49500
O828        O  0.33330161  0.66588099  0.13311237    -1.83900
O829        O  0.36735347  0.63079428  0.12342557    -0.74600
O830        O  0.28915929  0.64150122  0.10306187    -0.74400
O831        O  0.28788751  0.61362937  0.15625261    -0.73900
O832        O  0.34748958  0.63847757  0.10217783    -0.74600
O833        O  0.33051163  0.61548127  0.15634466    -0.74200
O834        O  0.26286395  0.63124136  0.12502327    -0.74800
O835        O  0.32910674  0.71745363  0.15147753    -0.74100
O836        O  0.34988270  0.69930153  0.09875211    -0.74900
O837        O  0.28825915  0.67592000  0.15514016    -0.74300
O838        O  0.36604457  0.73160115  0.11820447    -0.74800
O839        O  0.39086329  0.71810709  0.15041975    -0.74700
O840        O  0.39151452  0.67703548  0.15263389    -0.74500
C841        C  0.36208216  0.62828373  0.10855531     0.77300
C842        C  0.26474426  0.63081417  0.10991711     0.77800
C843        C  0.30420229  0.60385305  0.16078883     0.76800
C844        C  0.30377919  0.70307765  0.15738165     0.77200
C845        C  0.36309718  0.72538195  0.10343844     0.78300
C846        C  0.40300019  0.70407229  0.15515714     0.77300
Zn847      Zn  0.04040623  0.52168979  0.97860566     1.49700
Zn848      Zn  0.48160639  0.96019079  0.97957614     1.49400
Zn849      Zn  0.99998838  0.50278568  0.00902189     1.49100
Zn850      Zn  0.47871763  0.51898556  0.97733736     1.49500
O851        O  0.00014306  0.50090304  0.98596315    -1.83900
O852        O  0.04982531  0.99491818  0.96646173    -0.74600
O853        O  0.46837999  0.93348593  0.99870602    -0.74400
O854        O  0.03963627  0.52435420  0.01796738    -0.73900
O855        O  0.00917406  0.95252737  0.96674496    -0.74600
O856        O  0.06873138  0.53846629  0.99702010    -0.74200
O857        O  0.48110527  0.96381850  0.01904289    -0.74800
O858        O  0.46229000  0.53291749  0.99491577    -0.74100
O859        O  0.44696272  0.94981045  0.96562902    -0.74900
O860        O  0.47915637  0.52259539  0.01654667    -0.74300
O861        O  0.44585231  0.99070266  0.96337302    -0.74800
O862        O  0.00495800  0.55337754  0.96367312    -0.74700
O863        O  0.04707525  0.55429590  0.96379099    -0.74500
C864        C  0.03546913  0.96838009  0.96253822     0.77300
C865        C  0.46971111  0.93826499  0.01362125     0.77800
C866        C  0.06487431  0.53736123  0.01202617     0.76800
C867        C  0.46506241  0.53317665  0.00998818     0.77200
C868        C  0.43579249  0.96413831  0.95993697     0.82700
C869        C  0.03118733  0.56446901  0.95915302     0.77300
Zn870      Zn  0.99990198  0.50154542  0.46281873     1.49700
Zn871      Zn  0.47901838  0.51794583  0.49407532     1.49400
Zn872      Zn  0.48188665  0.95907340  0.49219916     1.49100
Zn873      Zn  0.04099992  0.52087387  0.49294553     1.49500
O874        O  0.00049105  0.49982841  0.48576318    -1.83900
O875        O  0.48126610  0.52321832  0.45499865    -0.74600
O876        O  0.44585630  0.98981968  0.50784094    -0.74400
O877        O  0.46739629  0.93202753  0.47306131    -0.73900
O878        O  0.46288623  0.53200392  0.47649524    -0.74600
O879        O  0.47804549  0.96279594  0.45309874    -0.74200
O880        O  0.44749636  0.94912634  0.50635876    -0.74800
O881        O  0.04958529  0.99466653  0.50628902    -0.74100
O882        O  0.00521485  0.55237553  0.50751519    -0.74900
O883        O  0.00970992  0.95165814  0.50499281    -0.74300
O884        O  0.04820999  0.55516074  0.50667992    -0.74800
O885        O  0.06932387  0.53452034  0.47427700    -0.74700
O886        O  0.03928185  0.51953818  0.45374741    -0.74500
C887        C  0.46654251  0.53314782  0.46147998     0.77300
C888        C  0.43591273  0.96340500  0.51157989     0.77800
C889        C  0.46688672  0.93715102  0.45828412     0.76800
C890        C  0.03551189  0.96794414  0.50989009     0.77200
C891        C  0.03177553  0.56461656  0.51150858     0.78300
C892        C  0.06478062  0.53170855  0.45931695     0.77300
C893        C  0.23845624  0.61794201  0.09985193    -0.03000
C894        C  0.21065620  0.60619653  0.10648131    -0.05600
C895        C  0.18622251  0.59430560  0.09663759    -0.20700
C896        C  0.18914323  0.59427474  0.08003404     0.25000
C897        C  0.21692480  0.60568639  0.07345015    -0.18200
C898        C  0.24122321  0.61742938  0.08323227    -0.08200
C899        C  0.16288132  0.58123559  0.06990955    -0.18500
C900        C  0.16291908  0.58964610  0.05478042    -0.23300
C901        C  0.13729885  0.57621391  0.04414355     0.27100
C902        C  0.14165538  0.57987230  0.02763355    -0.20100
C903        C  0.11824575  0.56731712  0.01712756    -0.09700
C904        C  0.08990517  0.55107529  0.02296025    -0.10200
C905        C  0.08550928  0.54783401  0.03950424    -0.03200
C906        C  0.10887155  0.56029241  0.04998373    -0.18300
H907        H  0.20779281  0.60618992  0.11922997     0.10800
H908        H  0.16497115  0.58532378  0.10199022     0.10900
H909        H  0.22003908  0.60507309  0.06077626     0.10500
H910        H  0.26227327  0.62600953  0.07770069     0.11600
H911        H  0.14315462  0.56435491  0.07523296     0.11700
H912        H  0.18280121  0.60684065  0.04971937     0.13600
H913        H  0.16333082  0.59224321  0.02282435     0.10200
H914        H  0.12234441  0.57031347  0.00446200     0.12200
H915        H  0.06391332  0.53559430  0.04442073     0.08900
H916        H  0.10436444  0.55766633  0.06258869     0.11600
C917        C  0.37539158  0.74877681  0.09144064    -0.03000
C918        C  0.36959964  0.74248143  0.07516100    -0.05600
C919        C  0.38148848  0.76453549  0.06382756    -0.20700
C920        C  0.39931888  0.79335068  0.06848999     0.25000
C921        C  0.40550156  0.79957896  0.08476929    -0.18200
C922        C  0.39350286  0.77755656  0.09610067    -0.08200
C923        C  0.41172918  0.81607134  0.05601943    -0.18500
C924        C  0.42119359  0.84417486  0.05899046    -0.23300
C925        C  0.43401502  0.86752494  0.04687271     0.27100
C926        C  0.44817193  0.89621922  0.05222740    -0.20100
C927        C  0.45996514  0.91910710  0.04144612    -0.09700
C928        C  0.45779311  0.91385805  0.02498253    -0.10200
C929        C  0.44383570  0.88518339  0.01956808    -0.03200
C930        C  0.43196580  0.86222762  0.03037156    -0.18300
H931        H  0.35582982  0.72048908  0.07115170     0.10800
H932        H  0.37661633  0.75908092  0.05137533     0.10900
H933        H  0.42005832  0.82126786  0.08887684     0.10500
H934        H  0.39875957  0.78305511  0.10851190     0.11600
H935        H  0.41260120  0.80901638  0.04405860     0.11700
H936        H  0.41957712  0.85076612  0.07096420     0.13600
H937        H  0.45006686  0.90098968  0.06483615     0.10200
H938        H  0.47064504  0.94094961  0.04604976     0.12200
H939        H  0.44174334  0.88044664  0.00695918     0.08900
H940        H  0.42079448  0.84057866  0.02561586     0.11600
C941        C  0.37322496  0.61359459  0.09827652    -0.03000
C942        C  0.39448882  0.60752380  0.10376429    -0.05600
C943        C  0.40576625  0.59484522  0.09361736    -0.20700
C944        C  0.39618847  0.58825089  0.07782006     0.25000
C945        C  0.37426579  0.59347710  0.07249327    -0.18200
C946        C  0.36302043  0.60613078  0.08260264    -0.08200
C947        C  0.40930655  0.57570436  0.06729065    -0.18500
C948        C  0.41172155  0.57983157  0.05141530    -0.23300
C949        C  0.42600201  0.56833947  0.04090021     0.27100
C950        C  0.41971072  0.56527551  0.02455073    -0.20100
C951        C  0.43249915  0.55411163  0.01434884    -0.09700
C952        C  0.45191290  0.54590683  0.02035457    -0.10200
C953        C  0.45878921  0.54978102  0.03663334    -0.03200
C954        C  0.44620696  0.56103758  0.04675724    -0.18300
H955        H  0.40274403  0.61300753  0.11577956     0.10800
H956        H  0.42246405  0.59071935  0.09801586     0.10900
H957        H  0.36556772  0.58763341  0.06059503     0.10500
H958        H  0.34628823  0.61010258  0.07810184     0.11600
H959        H  0.41800501  0.56350331  0.07303226     0.11700
H960        H  0.40293784  0.59209557  0.04579745     0.13600
H961        H  0.40455567  0.57117975  0.01969345     0.10200
H962        H  0.42694285  0.55158651  0.00184394     0.12200
H963        H  0.47411274  0.54422460  0.04161746     0.08900
H964        H  0.45280480  0.56428622  0.05907814     0.11600
C965        C  0.43127820  0.71958496  0.16348220    -0.03000
C966        C  0.44405629  0.74923396  0.16685364    -0.05600
C967        C  0.47115343  0.76401581  0.17421040    -0.20700
C968        C  0.48610933  0.74958861  0.17847337     0.25000
C969        C  0.47336636  0.71991464  0.17503075    -0.18200
C970        C  0.44626692  0.70512453  0.16768049    -0.08200
C971        C  0.01525809  0.76646022  0.18591755    -0.18500
C972        C  0.02800239  0.75444917  0.19441236    -0.23300
C973        C  0.05689552  0.77124296  0.20211279     0.27100
C974        C  0.06375459  0.75847656  0.21470443    -0.20100
C975        C  0.09035360  0.77349577  0.22249478    -0.09700
C976        C  0.11074959  0.80176842  0.21792109    -0.10200
C977        C  0.10458422  0.81409251  0.20486208    -0.03200
C978        C  0.07790058  0.79908888  0.19703417    -0.18300
H979        H  0.43321483  0.76110098  0.16371529     0.10800
H980        H  0.48049586  0.78690041  0.17658498     0.10900
H981        H  0.48443602  0.70806005  0.17761218     0.10500
H982        H  0.43724050  0.68237368  0.16507124     0.11600
H983        H  0.02593848  0.78980436  0.18489467     0.11700
H984        H  0.01623645  0.73136654  0.19663581     0.13600
H985        H  0.04825223  0.73690415  0.21871696     0.10200
H986        H  0.09483620  0.76322509  0.23232897     0.12200
H987        H  0.12006933  0.83567474  0.20096040     0.08900
H988        H  0.07396357  0.80931530  0.18702053     0.11600
C989        C  0.29213420  0.57779310  0.17098285    -0.03000
C990        C  0.31049369  0.57106106  0.17968967    -0.05600
C991        C  0.29917115  0.54533324  0.18835639    -0.20700
C992        C  0.26939042  0.52546380  0.18816479     0.25000
C993        C  0.25090592  0.53260488  0.17986832    -0.18200
C994        C  0.26217163  0.55854824  0.17142312    -0.08200
C995        C  0.25832005  0.99760632  0.19675223    -0.18500
C996        C  0.23503417  0.97296386  0.19178867    -0.23300
C997        C  0.22330749  0.94456684  0.19997521     0.27100
C998        C  0.19494426  0.92279436  0.19642687    -0.20100
C999        C  0.18228725  0.89633674  0.20445020    -0.09700
C1000       C  0.19775993  0.89108610  0.21614821    -0.10200
C1001       C  0.22675002  0.91199146  0.21897972    -0.03200
C1002       C  0.23939101  0.93853406  0.21105182    -0.18300
H1003       H  0.33368093  0.58558951  0.17968552     0.10800
H1004       H  0.31380234  0.54052303  0.19484829     0.10900
H1005       H  0.22772639  0.51824613  0.17990833     0.10500
H1006       H  0.24746530  0.56317809  0.16487396     0.11600
H1007       H  0.27044603  0.99750918  0.20707655     0.11700
H1008       H  0.22355032  0.97356018  0.18125518     0.13600
H1009       H  0.18218347  0.92662896  0.18779000     0.10200
H1010       H  0.15995617  0.88060705  0.20206653     0.12200
H1011       H  0.23924674  0.90812497  0.22776644     0.08900
H1012       H  0.26165523  0.95412348  0.21374580     0.11600
C1013       C  0.29204998  0.71848082  0.16677210    -0.03000
C1014       C  0.30945751  0.74804020  0.17015871    -0.05600
C1015       C  0.29821629  0.76293606  0.17844101    -0.20700
C1016       C  0.26925145  0.74879969  0.18345032     0.25000
C1017       C  0.25191962  0.71903665  0.18036019    -0.18200
C1018       C  0.26320291  0.70409376  0.17208350    -0.08200
C1019       C  0.25843381  0.76586164  0.19214656    -0.18500
C1020       C  0.23019346  0.75762837  0.19380594    -0.23300
C1021       C  0.21952768  0.77499780  0.20234370     0.27100
C1022       C  0.19104792  0.76893797  0.19958219    -0.20100
C1023       C  0.17981148  0.78412347  0.20762980    -0.09700
C1024       C  0.19670002  0.80542564  0.21877912    -0.10200
C1025       C  0.22528641  0.81186176  0.22143419    -0.03200
C1026       C  0.23654233  0.79667796  0.21342943    -0.18300
H1027       H  0.33181550  0.75980100  0.16632340     0.10800
H1028       H  0.31217020  0.78573576  0.18078756     0.10900
H1029       H  0.22976985  0.70702963  0.18442837     0.10500
H1030       H  0.24924708  0.68129658  0.16975704     0.11600
H1031       H  0.27467520  0.78672793  0.19665027     0.11700
H1032       H  0.21401996  0.73791149  0.18814229     0.13600
H1033       H  0.17737271  0.75228761  0.19120221     0.10200
H1034       H  0.15767127  0.77874179  0.20544005     0.12200
H1035       H  0.23888467  0.82852435  0.22980995     0.08900
H1036       H  0.25830911  0.80168548  0.21627739     0.11600
C1037       C  0.19539372  0.89409231  0.25222420    -0.03000
C1038       C  0.21277474  0.89774358  0.26549502    -0.05600
C1039       C  0.22686823  0.92415289  0.27349864    -0.20700
C1040       C  0.22348713  0.94744244  0.26866642     0.25000
C1041       C  0.20510602  0.94350675  0.25572962    -0.18200
C1042       C  0.19096480  0.91698061  0.24772414    -0.08200
C1043       C  0.24046630  0.97554491  0.27708160    -0.18500
C1044       C  0.23377468  0.99677222  0.27711411    -0.23300
C1045       C  0.25084142  0.52423443  0.28609677     0.27100
C1046       C  0.23702285  0.53917232  0.29144552    -0.20100
C1047       C  0.25220101  0.56471992  0.30019772    -0.09700
C1048       C  0.28173806  0.57615815  0.30366285    -0.10200
C1049       C  0.29579025  0.56162765  0.29792297    -0.03200
C1050       C  0.28055849  0.53599431  0.28922836    -0.18300
H1051       H  0.21613774  0.88043402  0.26946975     0.10800
H1052       H  0.24073866  0.92647141  0.28346780     0.10900
H1053       H  0.20213508  0.96094991  0.25146648     0.10500
H1054       H  0.17698280  0.91454664  0.23781155     0.11600
H1055       H  0.25858076  0.97817415  0.28421979     0.11700
H1056       H  0.21419998  0.99336190  0.27124593     0.13600
H1057       H  0.21423742  0.53077002  0.28907726     0.10200
H1058       H  0.24068444  0.57538069  0.30436258     0.12200
H1059       H  0.31855001  0.56992663  0.30025262     0.08900
H1060       H  0.29223311  0.02567050  0.28485025     0.11600
C1061       C  0.42970105  0.71224432  0.30578018    -0.03000
C1062       C  0.44109443  0.69479750  0.30076680    -0.05600
C1063       C  0.46838234  0.70702201  0.29360678    -0.20700
C1064       C  0.48495630  0.73694888  0.29117471     0.25000
C1065       C  0.47351121  0.75444114  0.29611265    -0.18200
C1066       C  0.44619352  0.74220937  0.30327324    -0.08200
C1067       C  0.01440646  0.74915075  0.28405621    -0.18500
C1068       C  0.02817427  0.77496472  0.27666934    -0.23300
C1069       C  0.05715699  0.78706513  0.26907338     0.27100
C1070       C  0.06409456  0.80700751  0.25666860    -0.20100
C1071       C  0.09071252  0.81865414  0.24891606    -0.09700
C1072       C  0.11107864  0.81060128  0.25335416    -0.10200
C1073       C  0.10494647  0.79179695  0.26626946    -0.03200
C1074       C  0.07811014  0.77997711  0.27405174    -0.18300
H1075       H  0.42907857  0.67164805  0.30255736     0.10800
H1076       H  0.47663861  0.69301332  0.29000854     0.10900
H1077       H  0.48583581  0.77767142  0.29492163     0.10500
H1078       H  0.43828808  0.75634140  0.30717264     0.11600
H1079       H  0.02440598  0.73573890  0.28427586     0.11700
H1080       H  0.01705340  0.78714471  0.27513444     0.13600
H1081       H  0.04861676  0.81320800  0.25274438     0.10200
H1082       H  0.09521084  0.83357577  0.23917316     0.12200
H1083       H  0.12051104  0.78557806  0.26998388     0.08900
H1084       H  0.07390337  0.76543539  0.28393159     0.11600
C1085       C  0.19800294  0.80942533  0.25467310    -0.03000
C1086       C  0.22382197  0.82774135  0.26265245    -0.05600
C1087       C  0.23824890  0.81633286  0.27128592    -0.20700
C1088       C  0.22733239  0.78636428  0.27204446     0.25000
C1089       C  0.20098626  0.76799305  0.26423397    -0.18200
C1090       C  0.18661372  0.77949000  0.25558031    -0.08200
C1091       C  0.24422702  0.77556552  0.28108250    -0.18500
C1092       C  0.23949055  0.74830424  0.28027540    -0.23300
C1093       C  0.25647476  0.73766203  0.28926501     0.27100
C1094       C  0.24379001  0.70788661  0.29197439    -0.20100
C1095       C  0.25867028  0.69659602  0.30022073    -0.09700
C1096       C  0.28691936  0.71476016  0.30586967    -0.10200
C1097       C  0.30001496  0.74456319  0.30285051    -0.03200
C1098       C  0.28495790  0.75594046  0.29466954    -0.18300
H1099       H  0.23348075  0.85089409  0.26166691     0.10800
H1100       H  0.25841893  0.83107215  0.27711523     0.10900
H1101       H  0.19119272  0.74479520  0.26470812     0.10500
H1102       H  0.16673909  0.76504135  0.24941045     0.11600
H1103       H  0.26154177  0.79104428  0.28861800     0.11700
H1104       H  0.22204820  0.73253147  0.27295924     0.13600
H1105       H  0.22204672  0.69323148  0.28782648     0.10200
H1106       H  0.24791868  0.67351586  0.30220041     0.12200
H1107       H  0.32178038  0.75913982  0.30696314     0.08900
H1108       H  0.29588453  0.77891243  0.29242395     0.11600
C1109       C  0.25024351  0.63028429  0.37907774    -0.03000
C1110       C  0.25676473  0.63708722  0.39526263    -0.05600
C1111       C  0.23480391  0.62683171  0.40663246    -0.20700
C1112       C  0.20585559  0.60926943  0.40215147     0.25000
C1113       C  0.19919919  0.60305039  0.38589332    -0.18200
C1114       C  0.22120746  0.61340336  0.37448808    -0.08200
C1115       C  0.18339096  0.59830970  0.41477970    -0.18500
C1116       C  0.15720424  0.57471973  0.41298753    -0.23300
C1117       C  0.13442901  0.56390448  0.42539017     0.27100
C1118       C  0.10560285  0.54771144  0.42047225    -0.20100
C1119       C  0.08322674  0.53727773  0.43154269    -0.09700
C1120       C  0.08910804  0.54252767  0.44789097    -0.10200
C1121       C  0.11804382  0.55808214  0.45292997    -0.03200
C1122       C  0.14056070  0.56871053  0.44176948    -0.18300
H1123       H  0.27892964  0.65028794  0.39920465     0.10800
H1124       H  0.24050022  0.63226134  0.41901497     0.10900
H1125       H  0.17708943  0.59052571  0.38182829     0.10500
H1126       H  0.21550073  0.60803647  0.36210922     0.11600
H1127       H  0.18895330  0.60989798  0.42599599     0.11700
H1128       H  0.15160319  0.56304751  0.40180863     0.13600
H1129       H  0.10032707  0.54345836  0.40796545     0.10200
H1130       H  0.06120958  0.52512921  0.42721227     0.12200
H1131       H  0.12325803  0.56215173  0.46544247     0.08900
H1132       H  0.16261530  0.58029582  0.44603638     0.11600
C1133       C  0.45344685  0.91325671  0.44667230    -0.03000
C1134       C  0.44843395  0.91884257  0.43098474    -0.05600
C1135       C  0.43718403  0.89687337  0.41965415    -0.20700
C1136       C  0.43111586  0.86897124  0.42365731     0.25000
C1137       C  0.43513826  0.86304568  0.43948174    -0.18200
C1138       C  0.44620656  0.88502571  0.45088350    -0.08200
C1139       C  0.42042840  0.84668721  0.41103055    -0.18500
C1140       C  0.42464592  0.82391529  0.41133759    -0.23300
C1141       C  0.41326739  0.80135280  0.39890541     0.27100
C1142       C  0.40455713  0.77296802  0.40338261    -0.20100
C1143       C  0.39222575  0.75072117  0.39227276    -0.09700
C1144       C  0.38872420  0.75643461  0.37632693    -0.10200
C1145       C  0.39867188  0.78510470  0.37165684    -0.03200
C1146       C  0.41084005  0.80742370  0.38286806    -0.18300
H1147       H  0.45341672  0.94031138  0.42739311     0.10800
H1148       H  0.43383943  0.90184838  0.40762074     0.10900
H1149       H  0.42961161  0.84148983  0.44315293     0.10500
H1150       H  0.44952255  0.88002673  0.46290782     0.11600
H1151       H  0.40935226  0.84960102  0.40097984     0.11700
H1152       H  0.43564795  0.82082197  0.42134995     0.13600
H1153       H  0.40654898  0.76787006  0.41562377     0.10200
H1154       H  0.38507791  0.72891085  0.39628010     0.12200
H1155       H  0.39659464  0.79020598  0.35944202     0.08900
H1156       H  0.41832955  0.82933529  0.37896465     0.11600
C1157       C  0.45344100  0.54587602  0.45111490    -0.03000
C1158       C  0.43773015  0.55820904  0.45747732    -0.05600
C1159       C  0.42541417  0.56997339  0.44739111    -0.20700
C1160       C  0.42823950  0.56926660  0.43081129     0.25000
C1161       C  0.44433886  0.55731729  0.42449274    -0.18200
C1162       C  0.45666467  0.54567924  0.43452333    -0.08200
C1163       C  0.41510405  0.58208435  0.42046041    -0.18500
C1164       C  0.40735678  0.57388066  0.40524326    -0.23300
C1165       C  0.39523228  0.58738412  0.39463850     0.27100
C1166       C  0.39813863  0.58611375  0.37808878    -0.20100
C1167       C  0.38770898  0.59935508  0.36773468    -0.09700
C1168       C  0.37394658  0.61390855  0.37379064    -0.10200
C1169       C  0.37027885  0.61434573  0.39034613    -0.03200
C1170       C  0.38066861  0.60118506  0.40064030    -0.18300
H1171       H  0.43500237  0.55881052  0.47020274     0.10800
H1172       H  0.41341515  0.57943041  0.45254370     0.10900
H1173       H  0.44802697  0.55738833  0.41184649     0.10500
H1174       H  0.46886696  0.53658866  0.42921023     0.11600
H1175       H  0.41180603  0.59878961  0.42568587     0.11700
H1176       H  0.41061651  0.55708971  0.40009891     0.13600
H1177       H  0.40899027  0.57528301  0.37316994     0.10200
H1178       H  0.39071884  0.59850082  0.35505181     0.12200
H1179       H  0.35935669  0.62496762  0.39543637     0.08900
H1180       H  0.37689472  0.60166025  0.41324024     0.11600
C1181       C  0.04337222  0.58964222  0.94824873    -0.03000
C1182       C  0.02877841  0.60511265  0.94573668    -0.05600
C1183       C  0.04024702  0.62893096  0.93553866    -0.20700
C1184       C  0.06618649  0.63745815  0.92734801     0.25000
C1185       C  0.08086966  0.62204341  0.92980332    -0.18200
C1186       C  0.06962530  0.59845154  0.94021933    -0.08200
C1187       C  0.07784616  0.66327229  0.91693186    -0.18500
C1188       C  0.09383761  0.66675441  0.90384559    -0.23300
C1189       C  0.10449836  0.69261023  0.89349763     0.27100
C1190       C  0.10703920  0.69001703  0.87703919    -0.20100
C1191       C  0.11689653  0.71415311  0.86708549    -0.09700
C1192       C  0.12499012  0.74147577  0.87348643    -0.10200
C1193       C  0.12274861  0.74402735  0.89000245    -0.03200
C1194       C  0.11262877  0.71991940  0.89988499    -0.18300
H1195       H  0.00860486  0.59900749  0.95178790     0.10800
H1196       H  0.02868673  0.64063208  0.93394362     0.10900
H1197       H  0.10129456  0.62852013  0.92396200     0.10500
H1198       H  0.08143089  0.58702786  0.94193048     0.11600
H1199       H  0.07150201  0.67922071  0.91965166     0.11700
H1200       H  0.09775504  0.64955014  0.90008849     0.13600
H1201       H  0.10108747  0.66920844  0.87186508     0.10200
H1202       H  0.11852623  0.71148907  0.85442297     0.12200
H1203       H  0.12894720  0.76475510  0.89535304     0.08900
H1204       H  0.11169061  0.72282606  0.91256903     0.11600
C1205       C  0.41092611  0.94971618  0.94887844    -0.03000
C1206       C  0.39620306  0.91954503  0.94703447    -0.05600
C1207       C  0.37300041  0.90598466  0.93645310    -0.20700
C1208       C  0.36437786  0.92226853  0.92724992     0.25000
C1209       C  0.37906459  0.95245342  0.92904771    -0.18200
C1210       C  0.40201343  0.96600584  0.93980618    -0.08200
C1211       C  0.33891641  0.90702430  0.91664118    -0.18500
C1212       C  0.33574747  0.91854142  0.90307030    -0.23300
C1213       C  0.30939328  0.90378119  0.89302497     0.27100
C1214       C  0.31143762  0.90960175  0.87665436    -0.20100
C1215       C  0.28668429  0.89715204  0.86707538    -0.09700
C1216       C  0.25927014  0.87898962  0.87375253    -0.10200
C1217       C  0.25728717  0.87313274  0.89014215    -0.03200
C1218       C  0.28203172  0.88535935  0.89966907    -0.18300
H1219       H  0.40246338  0.90635337  0.95386025     0.10800
H1220       H  0.36182694  0.88268217  0.93538318     0.10900
H1221       H  0.37245251  0.96557288  0.92243696     0.10500
H1222       H  0.41288070  0.98927819  0.94095049     0.11600
H1223       H  0.32272185  0.88517074  0.91990459     0.11700
H1224       H  0.35328418  0.93914634  0.89895258     0.13600
H1225       H  0.33224572  0.92388400  0.87127331     0.10200
H1226       H  0.28897955  0.90211589  0.85449135     0.12200
H1227       H  0.23652770  0.85929616  0.89567725     0.08900
H1228       H  0.27950913  0.88101971  0.91231075     0.11600
C1229       C  0.04955118  0.95600396  0.95258426    -0.03000
C1230       C  0.07951839  0.97171986  0.94978132    -0.05600
C1231       C  0.09264250  0.96077699  0.93973193    -0.20700
C1232       C  0.07608758  0.93416590  0.93205326     0.25000
C1233       C  0.04621138  0.91807438  0.93512338    -0.18200
C1234       C  0.03310971  0.92885981  0.94532792    -0.08200
C1235       C  0.09077471  0.92349664  0.92128405    -0.18500
C1236       C  0.07759274  0.90628956  0.90870092    -0.23300
C1237       C  0.09234543  0.89579062  0.89783318     0.27100
C1238       C  0.08238079  0.88838056  0.88214165    -0.20100
C1239       C  0.09551485  0.87804289  0.87166105    -0.09700
C1240       C  0.11855568  0.87437401  0.87678282    -0.10200
C1241       C  0.12827351  0.88140981  0.89254579    -0.03200
C1242       C  0.11537349  0.89204884  0.90295805    -0.18300
H1243       H  0.09284679  0.99258942  0.95528389     0.10800
H1244       H  0.11575355  0.97340079  0.93771605     0.10900
H1245       H  0.03295941  0.89704631  0.92979473     0.10500
H1246       H  0.01001549  0.91612783  0.94732804     0.11600
H1247       H  0.11363149  0.93150517  0.92329439     0.11700
H1248       H  0.05559577  0.90075223  0.90576764     0.13600
H1249       H  0.06447130  0.89076636  0.87795099     0.10200
H1250       H  0.08738687  0.87255522  0.85961700     0.12200
H1251       H  0.14593601  0.87873182  0.89684601     0.08900
H1252       H  0.12310106  0.89668883  0.91508671     0.11600
C1253       C  0.38983375  0.68871772  0.75416135    -0.03000
C1254       C  0.40837307  0.67792304  0.75055502    -0.05600
C1255       C  0.43477164  0.68848153  0.75843689    -0.20700
C1256       C  0.44317825  0.71003623  0.77007046     0.25000
C1257       C  0.42383477  0.71975091  0.77423678    -0.18200
C1258       C  0.39734524  0.70909726  0.76633947    -0.08200
C1259       C  0.47208068  0.72153106  0.77762448    -0.18500
C1260       C  0.48659073  0.74790156  0.78433828    -0.23300
C1261       C  0.01598489  0.76030875  0.79143676     0.27100
C1262       C  0.03169618  0.79016234  0.79420314    -0.20100
C1263       C  0.05897890  0.80290509  0.80128402    -0.09700
C1264       C  0.07130595  0.78608272  0.80585301    -0.10200
C1265       C  0.05573459  0.75618497  0.80301149    -0.03200
C1266       C  0.02830890  0.74337768  0.79595093    -0.18300
H1267       H  0.40265602  0.66174751  0.74137083     0.10800
H1268       H  0.44897276  0.68026006  0.75516962     0.10900
H1269       H  0.42897509  0.73550627  0.78356759     0.10500
H1270       H  0.38312145  0.71740138  0.76938531     0.11600
H1271       H  0.48232120  0.70844077  0.77664832     0.11700
H1272       H  0.47719618  0.76182624  0.78400445     0.13600
H1273       H  0.02274962  0.80373862  0.79094591     0.10200
H1274       H  0.07026792  0.82598338  0.80335357     0.12200
H1275       H  0.06442440  0.74255575  0.80659878     0.08900
H1276       H  0.01671239  0.72020309  0.79447293     0.11600
C1277       C  0.30602755  0.60927419  0.75347849    -0.03000
C1278       C  0.31663987  0.59042024  0.75046865    -0.05600
C1279       C  0.30563158  0.56438291  0.75876001    -0.20700
C1280       C  0.28368712  0.55660260  0.77013428     0.25000
C1281       C  0.27381014  0.57605217  0.77352988    -0.18200
C1282       C  0.28495443  0.60216934  0.76525937    -0.08200
C1283       C  0.27206308  0.52829792  0.77830975    -0.18500
C1284       C  0.24543501  0.51397960  0.78481584    -0.23300
C1285       C  0.23339496  0.98513548  0.79246534     0.27100
C1286       C  0.20327874  0.96790847  0.79410596    -0.20100
C1287       C  0.19108673  0.94081862  0.80141746    -0.09700
C1288       C  0.20880948  0.93035044  0.80725670    -0.10200
C1289       C  0.23895617  0.94763844  0.80568434    -0.03200
C1290       C  0.25114069  0.97478593  0.79849664    -0.18300
H1291       H  0.33321812  0.59574949  0.74155364     0.10800
H1292       H  0.31392739  0.55002080  0.75607232     0.10900
H1293       H  0.25764949  0.57132317  0.78258802     0.10500
H1294       H  0.27653294  0.61641998  0.76777034     0.11600
H1295       H  0.28535997  0.51820195  0.77798428     0.11700
H1296       H  0.23114840  0.52290311  0.78379164     0.13600
H1297       H  0.18910498  0.97542735  0.78968909     0.10200
H1298       H  0.16778559  0.92811406  0.80252812     0.12200
H1299       H  0.25325530  0.94044197  0.81030744     0.08900
H1300       H  0.27445039  0.98771186  0.79803066     0.11600
C1301       C  0.30832299  0.69842377  0.75531040    -0.03000
C1302       C  0.28940892  0.68380884  0.76789382    -0.05600
C1303       C  0.27593551  0.69656238  0.77621659    -0.20700
C1304       C  0.28121963  0.72435156  0.77224926     0.25000
C1305       C  0.30149787  0.73962637  0.76015716    -0.18200
C1306       C  0.31507308  0.72687392  0.75193340    -0.08200
C1307       C  0.26450321  0.73585138  0.78079970    -0.18500
C1308       C  0.26698478  0.76191330  0.77814448    -0.23300
C1309       C  0.24956637  0.77241163  0.78672616     0.27100
C1310       C  0.26075005  0.80227724  0.78826650    -0.20100
C1311       C  0.24523967  0.81308948  0.79634539    -0.09700
C1312       C  0.21789037  0.79424142  0.80286511    -0.10200
C1313       C  0.20629312  0.76433728  0.80093900    -0.03200
C1314       C  0.22192718  0.75351312  0.79296063    -0.18300
H1315       H  0.28411355  0.66207619  0.77090877     0.10800
H1316       H  0.26073893  0.68432198  0.78555961     0.10900
H1317       H  0.30680705  0.76116289  0.75669487     0.10500
H1318       H  0.33027321  0.73897940  0.74257076     0.11600
H1319       H  0.24940847  0.72198325  0.78982367     0.11700
H1320       H  0.28292553  0.77684273  0.76983200     0.13600
H1321       H  0.28181273  0.81732232  0.78341745     0.10200
H1322       H  0.25479057  0.83625654  0.79757081     0.12200
H1323       H  0.18528031  0.74923626  0.80580464     0.08900
H1324       H  0.21211009  0.73039010  0.79155846     0.11600
C1325       C  0.07463484  0.78841561  0.66917219    -0.03000
C1326       C  0.07573083  0.79099922  0.68584036    -0.05600
C1327       C  0.05015686  0.77958954  0.69477284    -0.20700
C1328       C  0.02302040  0.76526463  0.68726386     0.25000
C1329       C  0.02203127  0.76319352  0.67057468    -0.18200
C1330       C  0.04746240  0.77443292  0.66169013    -0.08200
C1331       C  0.49622136  0.75352349  0.69705284    -0.18500
C1332       C  0.47036858  0.73206595  0.69199829    -0.23300
C1333       C  0.44322475  0.71995609  0.70144854     0.27100
C1334       C  0.42059601  0.69221485  0.69767784    -0.20100
C1335       C  0.39467829  0.67982456  0.70621884    -0.09700
C1336       C  0.39058783  0.69505985  0.71853829    -0.10200
C1337       C  0.41284375  0.72316734  0.72206205    -0.03200
C1338       C  0.43897775  0.73550240  0.71365887    -0.18300
H1339       H  0.09630237  0.80188367  0.69197339     0.10800
H1340       H  0.05156848  0.78182538  0.70759943     0.10900
H1341       H  0.00171937  0.75343561  0.66421940     0.10500
H1342       H  0.04575465  0.77241198  0.64886937     0.11600
H1343       H  0.49824341  0.76204096  0.70899298     0.11700
H1344       H  0.46904029  0.72172935  0.68067646     0.13600
H1345       H  0.42319632  0.67980798  0.68828175     0.10200
H1346       H  0.37832851  0.65797212  0.70354491     0.12200
H1347       H  0.41003646  0.73550654  0.73141562     0.08900
H1348       H  0.45549373  0.75726007  0.71661289     0.11600
C1349       C  0.20929320  0.92776426  0.66682529    -0.03000
C1350       C  0.20729183  0.92757740  0.68347694    -0.05600
C1351       C  0.21889972  0.95351610  0.69195763    -0.20700
C1352       C  0.23279991  0.98024614  0.68404525     0.25000
C1353       C  0.23435220  0.98037936  0.66731773    -0.18200
C1354       C  0.22280183  0.95446535  0.65885464    -0.08200
C1355       C  0.24475807  0.50715645  0.69374297    -0.18500
C1356       C  0.26232554  0.53396710  0.68805156    -0.23300
C1357       C  0.27468334  0.56036413  0.69812510     0.27100
C1358       C  0.30010216  0.58492325  0.69308814    -0.20100
C1359       C  0.31310478  0.60982110  0.70246003    -0.09700
C1360       C  0.30113743  0.61081317  0.71716505    -0.10200
C1361       C  0.27452350  0.58689661  0.72165488    -0.03200
C1362       C  0.26155574  0.56187055  0.71233917    -0.18300
H1363       H  0.19675177  0.90739575  0.68997130     0.10800
H1364       H  0.21708847  0.95266912  0.70480640     0.10900
H1365       H  0.24407342  0.00021503  0.66057832     0.10500
H1366       H  0.22447980  0.95540929  0.64600532     0.11600
H1367       H  0.23963501  0.50445700  0.70633468     0.11700
H1368       H  0.26949788  0.53691872  0.67579334     0.13600
H1369       H  0.31028826  0.58468850  0.68198300     0.10200
H1370       H  0.33277632  0.62801133  0.69820333     0.12200
H1371       H  0.26356744  0.58748103  0.73235060     0.08900
H1372       H  0.24111901  0.54401728  0.71623070     0.11600
C1373       C  0.21348444  0.78817420  0.66906971    -0.03000
C1374       C  0.21407548  0.78967898  0.68576857    -0.05600
C1375       C  0.22605244  0.77603461  0.69467762    -0.20700
C1376       C  0.23782977  0.76077229  0.68710369     0.25000
C1377       C  0.23696467  0.75903780  0.67041184    -0.18200
C1378       C  0.22507208  0.77265780  0.66153258    -0.08200
C1379       C  0.24973597  0.74593841  0.69691911    -0.18500
C1380       C  0.26988885  0.73980736  0.69151956    -0.23300
C1381       C  0.28179958  0.72487597  0.70119564     0.27100
C1382       C  0.30949604  0.72945763  0.69760084    -0.20100
C1383       C  0.32153297  0.71591496  0.70645781    -0.09700
C1384       C  0.30599565  0.69737824  0.71901405    -0.10200
C1385       C  0.27782849  0.69180685  0.72223444    -0.03200
C1386       C  0.26586530  0.70553119  0.71347872    -0.18300
H1387       H  0.20522729  0.80132488  0.69196115     0.10800
H1388       H  0.22620187  0.77747283  0.70752561     0.10900
H1389       H  0.24484648  0.74666502  0.66412647     0.10500
H1390       H  0.22468456  0.77070804  0.64870818     0.11600
H1391       H  0.24250140  0.74105771  0.70917436     0.11700
H1392       H  0.27923821  0.74727454  0.67981513     0.13600
H1393       H  0.32204353  0.74392421  0.68805175     0.10200
H1394       H  0.34320681  0.72032858  0.70369968     0.12200
H1395       H  0.26511460  0.67687368  0.73157924     0.08900
H1396       H  0.24404008  0.70057932  0.71619124     0.11600
C1397       C  0.12525962  0.74237011  0.59740916    -0.03000
C1398       C  0.14225742  0.72972837  0.59385305    -0.05600
C1399       C  0.13177157  0.70571811  0.58382463    -0.20700
C1400       C  0.10426855  0.69400670  0.57690042     0.25000
C1401       C  0.08705192  0.70640574  0.58061099    -0.18200
C1402       C  0.09748832  0.73035444  0.59071949    -0.08200
C1403       C  0.09427576  0.66867252  0.56612861    -0.18500
C1404       C  0.07385740  0.66175347  0.55487807    -0.23300
C1405       C  0.06400065  0.63684974  0.54380365     0.27100
C1406       C  0.03723392  0.62652706  0.53618743    -0.20100
C1407       C  0.02697648  0.60333611  0.52560220    -0.09700
C1408       C  0.04341880  0.59003352  0.52222186    -0.10200
C1409       C  0.07055147  0.60074017  0.52954124    -0.03200
C1410       C  0.08074630  0.62386795  0.54023998    -0.18300
H1411       H  0.16369723  0.73833625  0.59885436     0.10800
H1412       H  0.14538249  0.69645929  0.58130852     0.10900
H1413       H  0.06536094  0.69750846  0.57598607     0.10500
H1414       H  0.08378426  0.73947192  0.59327596     0.11600
H1415       H  0.10476446  0.65584151  0.56736790     0.11700
H1416       H  0.06355541  0.67475617  0.55363849     0.13600
H1417       H  0.02402005  0.63628446  0.53855626     0.10200
H1418       H  0.50608262  0.59579265  0.52008524     0.12200
H1419       H  0.08380094  0.59106180  0.52712859     0.08900
H1420       H  0.10189494  0.63167251  0.54543315     0.11600
C1421       C  0.25698273  0.88117944  0.59691703    -0.03000
C1422       C  0.26824744  0.90989328  0.59188919    -0.05600
C1423       C  0.29160085  0.92245562  0.58136416    -0.20700
C1424       C  0.30415168  0.90663529  0.57548895     0.25000
C1425       C  0.29319468  0.87799641  0.58070669    -0.18200
C1426       C  0.26984616  0.86542960  0.59129220    -0.08200
C1427       C  0.32904466  0.92125839  0.56434966    -0.18500
C1428       C  0.33780672  0.90726565  0.55443759    -0.23300
C1429       C  0.36268486  0.92223244  0.54328504     0.27100
C1430       C  0.37573845  0.90694582  0.53729843    -0.20100
C1431       C  0.39938661  0.92019590  0.52695824    -0.09700
C1432       C  0.41045631  0.94907939  0.52227829    -0.10200
C1433       C  0.39699766  0.96421003  0.52797066    -0.03200
C1434       C  0.37331036  0.95093857  0.53826981    -0.18300
H1435       H  0.25894651  0.92269588  0.59602482     0.10800
H1436       H  0.29973113  0.94460454  0.57766844     0.10900
H1437       H  0.30273220  0.86526642  0.57689276     0.10500
H1438       H  0.26179741  0.84332294  0.59500869     0.11600
H1439       H  0.34025406  0.94464949  0.56430026     0.11700
H1440       H  0.32671419  0.88386735  0.55452748     0.13600
H1441       H  0.36782039  0.88472975  0.54078567     0.10200
H1442       H  0.40909108  0.90782956  0.52271471     0.12200
H1443       H  0.40471892  0.98635730  0.52444551     0.08900
H1444       H  0.36330179  0.96325186  0.54203032     0.11600
C1445       C  0.11646401  0.87333596  0.59668717    -0.03000
C1446       C  0.08760681  0.85545677  0.59194362    -0.05600
C1447       C  0.07454429  0.86550163  0.58127944    -0.20700
C1448       C  0.09005568  0.89348579  0.57498697     0.25000
C1449       C  0.11868854  0.91172425  0.58006942    -0.18200
C1450       C  0.13174877  0.90171272  0.59078328    -0.08200
C1451       C  0.07537256  0.90303493  0.56350345    -0.18500
C1452       C  0.08965330  0.92367617  0.55249668    -0.23300
C1453       C  0.07520758  0.93385720  0.54120444     0.27100
C1454       C  0.09154345  0.96145414  0.53452435    -0.20100
C1455       C  0.07876099  0.97239499  0.52424095    -0.09700
C1456       C  0.04934218  0.95577751  0.52021692    -0.10200
C1457       C  0.03316944  0.92775066  0.52648638    -0.03200
C1458       C  0.04593179  0.91686722  0.53685806    -0.18300
H1459       H  0.07514301  0.83355816  0.59634738     0.10800
H1460       H  0.05235025  0.85117023  0.57772316     0.10900
H1461       H  0.13099831  0.93381615  0.57597792     0.10500
H1462       H  0.15389038  0.91617081  0.59435993     0.11600
H1463       H  0.05196858  0.89224128  0.56410350     0.11700
H1464       H  0.11306650  0.93426943  0.55191967     0.13600
H1465       H  0.11420430  0.97485629  0.53751341     0.10200
H1466       H  0.09191774  0.99397456  0.51952830     0.12200
H1467       H  0.01052258  0.91430157  0.52352579     0.08900
H1468       H  0.03280273  0.89510216  0.54127258     0.11600
Zn1469     Zn  0.68442261  0.37256325  0.62506541     1.49700
Zn1470     Zn  0.68788230  0.31486594  0.62596317     1.49400
Zn1471     Zn  0.66713758  0.33466986  0.65716782     1.49100
Zn1472     Zn  0.62666207  0.31159697  0.62596767     1.49500
O1473       O  0.66650621  0.33338448  0.63367290    -1.83900
O1474       O  0.71904721  0.38170914  0.61153539    -0.74600
O1475       O  0.70170401  0.30093179  0.64428401    -0.74400
O1476       O  0.68672431  0.37631045  0.66495874    -0.73900
O1477       O  0.72225746  0.34192072  0.61256346    -0.74600
O1478       O  0.69745921  0.40169121  0.64257442    -0.74200
O1479       O  0.68828216  0.31464228  0.66611595    -0.74800
O1480       O  0.59894695  0.29785142  0.64435176    -0.74100
O1481       O  0.66296001  0.28034946  0.61228295    -0.74900
O1482       O  0.62613558  0.31439316  0.66604865    -0.74300
O1483       O  0.61997691  0.27737420  0.61248592    -0.74800
O1484       O  0.61653565  0.33619123  0.61227345    -0.74700
O1485       O  0.65692751  0.37857785  0.61141174    -0.74500
C1486       C  0.73153723  0.36759650  0.60763003     0.77300
C1487       C  0.70051723  0.30208863  0.65937658     0.77800
C1488       C  0.69719914  0.40044241  0.65768779     0.76800
C1489       C  0.60137381  0.30079274  0.65940491     0.77200
C1490       C  0.63659787  0.26799201  0.60796330     0.78300
C1491       C  0.63067649  0.36218118  0.60741218     0.77300
C1492       C  0.83325817  0.16778226  0.72089224     0.45700
H1493       H  0.83335074  0.16888987  0.70771098    -0.03400
C1494       C  0.83306901  0.16604296  0.75188132     0.45700
H1495       H  0.83323419  0.16524227  0.76508521    -0.03400
C1496       C  0.81630594  0.13686570  0.72762726    -0.17100
C1497       C  0.86365612  0.18117800  0.72822317    -0.16800
C1498       C  0.81932274  0.18386416  0.72869869    -0.17200
C1499       C  0.81665189  0.13609027  0.74402360    -0.17200
C1500       C  0.86345848  0.17982423  0.74453144    -0.16700
C1501       C  0.81950232  0.18335251  0.74507096    -0.17100
Zn1502     Zn  0.70616521  0.35635050  0.83085114     1.49700
Zn1503     Zn  0.64787609  0.29424044  0.83025087     1.49400
Zn1504     Zn  0.66738320  0.33299199  0.86189171     1.49100
Zn1505     Zn  0.64461859  0.35271652  0.83200839     1.49500
O1506       O  0.66643069  0.33393704  0.83867416    -1.83900
O1507       O  0.71587604  0.33206155  0.81663606    -0.74600
O1508       O  0.63545707  0.26489285  0.84814162    -0.74400
O1509       O  0.70812720  0.35263231  0.87039258    -0.73900
O1510       O  0.67615003  0.28883834  0.81649137    -0.74600
O1511       O  0.73517403  0.36993987  0.84876607    -0.74200
O1512       O  0.64766554  0.29218383  0.86981550    -0.74800
O1513       O  0.62900788  0.36392483  0.85090434    -0.74100
O1514       O  0.61150349  0.28485012  0.81771883    -0.74900
O1515       O  0.64696458  0.35234681  0.87161526    -0.74300
O1516       O  0.61026136  0.32576783  0.81891163    -0.74800
O1517       O  0.66954218  0.38916558  0.81946576    -0.74700
O1518       O  0.71243787  0.39183552  0.81907261    -0.74500
C1519       C  0.70234397  0.30567797  0.81234737     0.77300
C1520       C  0.63653728  0.26747590  0.86323508     0.77800
C1521       C  0.73283251  0.36653564  0.86378123     0.76800
C1522       C  0.63221456  0.36296266  0.86585323     0.77200
C1523       C  0.59931301  0.29960219  0.81446456     0.78300
C1524       C  0.69618537  0.40219760  0.81558324     0.77300
Zn1525     Zn  0.79456252  0.14918813  0.33301200     1.49700
Zn1526     Zn  0.85599439  0.20849974  0.33149361     1.49400
Zn1527     Zn  0.83784704  0.16781471  0.36184457     1.49100
Zn1528     Zn  0.85293951  0.14583931  0.33045121     1.49500
O1529       O  0.83543921  0.16798256  0.33888393    -1.83900
O1530       O  0.78690002  0.17639880  0.32014005    -0.74600
O1531       O  0.87203557  0.23663503  0.35027308    -0.74400
O1532       O  0.79969607  0.15259192  0.37223894    -0.73900
O1533       O  0.82877426  0.21755349  0.31848340    -0.74600
O1534       O  0.76820828  0.13698679  0.35240395    -0.74200
O1535       O  0.86259755  0.20674287  0.37055002    -0.74800
O1536       O  0.86494198  0.12762111  0.34813621    -0.74100
O1537       O  0.89104563  0.21532666  0.31836803    -0.74900
O1538       O  0.85378013  0.14384662  0.36966380    -0.74300
O1539       O  0.88899804  0.17265120  0.31806802    -0.74800
O1540       O  0.82440848  0.11305546  0.31632210    -0.74700
O1541       O  0.78352701  0.11402322  0.31947193    -0.74500
C1542       C  0.80181171  0.20235899  0.31526476     0.77300
C1543       C  0.87385039  0.23215608  0.36502821     0.77800
C1544       C  0.77383968  0.14049671  0.36723717     0.76800
C1545       C  0.86369726  0.12912103  0.36322701     0.77200
C1546       C  0.90162111  0.19937816  0.31439407     0.78300
C1547       C  0.79745903  0.10256139  0.31359057     0.77300
C1548       C  0.66838955  0.33686749  0.25098274     0.45700
H1549       H  0.66831205  0.33785641  0.26417835    -0.03400
C1550       C  0.66802232  0.33408088  0.21997905     0.45700
H1551       H  0.66799568  0.33290430  0.20678366    -0.03400
C1552       C  0.68424981  0.32166775  0.24432691    -0.17100
C1553       C  0.63783401  0.32067223  0.24374156    -0.16800
C1554       C  0.68281260  0.36666300  0.24290084    -0.17200
C1555       C  0.68392552  0.32007276  0.22800560    -0.17200
C1556       C  0.63764211  0.31871723  0.22741757    -0.16700
C1557       C  0.68296278  0.36521051  0.22653485    -0.17100
Zn1558     Zn  0.85515263  0.14795765  0.14126798     1.49700
Zn1559     Zn  0.83007593  0.16142733  0.11011940     1.49400
Zn1560     Zn  0.79405397  0.14711164  0.14221222     1.49100
Zn1561     Zn  0.85416331  0.20713294  0.13818696     1.49500
O1562       O  0.83330267  0.16588293  0.13311186    -1.83900
O1563       O  0.86734633  0.13078745  0.12342555    -0.74600
O1564       O  0.78916215  0.14150922  0.10306194    -0.74400
O1565       O  0.78788596  0.11363399  0.15625308    -0.73900
O1566       O  0.84748468  0.13847373  0.10217791    -0.74600
O1567       O  0.83050909  0.11548385  0.15634490    -0.74200
O1568       O  0.76286458  0.13124594  0.12502262    -0.74800
O1569       O  0.82911073  0.21745909  0.15147541    -0.74100
O1570       O  0.84989010  0.19930335  0.09875153    -0.74900
O1571       O  0.78826246  0.17592618  0.15513830    -0.74300
O1572       O  0.86605290  0.23160340  0.11820360    -0.74800
O1573       O  0.89086407  0.21810536  0.15041998    -0.74700
O1574       O  0.89151458  0.17703307  0.15263216    -0.74500
C1575       C  0.86207389  0.12827617  0.10855542     0.77300
C1576       C  0.76474650  0.13082140  0.10991647     0.77800
C1577       C  0.80420016  0.10385714  0.16078950     0.76800
C1578       C  0.80378288  0.20308390  0.15737929     0.77200
C1579       C  0.86310674  0.22538387  0.10343762     0.78300
C1580       C  0.90300053  0.20406959  0.15515641     0.77300
Zn1581     Zn  0.54040226  0.02169071  0.97860646     1.49700
Zn1582     Zn  0.98161000  0.46018997  0.97957473     1.49400
Zn1583     Zn  0.49998839  0.00278636  0.00902382     1.49100
Zn1584     Zn  0.97871257  0.01898254  0.97733915     1.49500
O1585       O  0.50014007  0.00090372  0.98596498    -1.83900
O1586       O  0.54982926  0.49491624  0.96646304    -0.74600
O1587       O  0.96837949  0.43348527  0.99870486    -0.74400
O1588       O  0.53963745  0.02435630  0.01796867    -0.73900
O1589       O  0.50917731  0.45252610  0.96674520    -0.74600
O1590       O  0.56872952  0.03846666  0.99702015    -0.74200
O1591       O  0.98110216  0.46381801  0.01904152    -0.74800
O1592       O  0.96228652  0.03291451  0.99491803    -0.74100
O1593       O  0.94696871  0.44981053  0.96562566    -0.74900
O1594       O  0.97915621  0.02259591  0.01654890    -0.74300
O1595       O  0.94585804  0.49070266  0.96336926    -0.74800
O1596       O  0.50495063  0.05337627  0.96367465    -0.74700
O1597       O  0.54706887  0.05429673  0.96379210    -0.74500
C1598       C  0.53547306  0.46837819  0.96253949     0.77300
C1599       C  0.96970793  0.43826438  0.01362002     0.77800
C1600       C  0.56487474  0.03736257  0.01202640     0.76800
C1601       C  0.96506012  0.03317492  0.00999038     0.77200
C1602       C  0.93579871  0.46413833  0.95993318     0.82700
C1603       C  0.53117965  0.06446835  0.95915401     0.77300
Zn1604     Zn  0.49989869  0.00154175  0.46281801     1.49700
Zn1605     Zn  0.97901658  0.01794467  0.49407547     1.49400
Zn1606     Zn  0.98188984  0.45907573  0.49219893     1.49100
Zn1607     Zn  0.54099761  0.02087188  0.49294449     1.49500
O1608       O  0.50048823  0.99982597  0.48576259    -1.83900
O1609       O  0.98126218  0.02321482  0.45499869    -0.74600
O1610       O  0.94585872  0.48982115  0.50784118    -0.74400
O1611       O  0.96740076  0.43203138  0.47306043    -0.73900
O1612       O  0.96288532  0.03200368  0.47649549    -0.74600
O1613       O  0.97804859  0.46280075  0.45309852    -0.74200
O1614       O  0.94749931  0.44912813  0.50635826    -0.74800
O1615       O  0.54958694  0.49466828  0.50628944    -0.74100
O1616       O  0.50521351  0.05237442  0.50751477    -0.74900
O1617       O  0.50971217  0.45165952  0.50499287    -0.74300
O1618       O  0.54820821  0.05515873  0.50667907    -0.74800
O1619       O  0.56932157  0.03451885  0.47427588    -0.74700
O1620       O  0.53927914  0.01953606  0.45374647    -0.74500
C1621       C  0.96654042  0.03314630  0.46148016     0.77300
C1622       C  0.93591556  0.46340639  0.51157981     0.77800
C1623       C  0.96689090  0.43715562  0.45828337     0.76800
C1624       C  0.53551390  0.46794584  0.50989042     0.77200
C1625       C  0.53177436  0.06461513  0.51150791     0.78300
C1626       C  0.56477813  0.03170700  0.45931586     0.77300
C1627       C  0.73846011  0.11795061  0.09985013    -0.03000
C1628       C  0.71065800  0.10619072  0.10647852    -0.05600
C1629       C  0.68622609  0.09429809  0.09663344    -0.20700
C1630       C  0.68915058  0.09427991  0.08002965     0.25000
C1631       C  0.71693445  0.10570689  0.07344673    -0.18200
C1632       C  0.74123101  0.11745154  0.08323014    -0.08200
C1633       C  0.66289023  0.08123779  0.06990397    -0.18500
C1634       C  0.66292623  0.08965227  0.05477591    -0.23300
C1635       C  0.63730511  0.07621792  0.04413992     0.27100
C1636       C  0.64165946  0.07986856  0.02762957    -0.20100
C1637       C  0.61824784  0.06731214  0.01712490    -0.09700
C1638       C  0.58990760  0.05107720  0.02295927    -0.10200
C1639       C  0.58551428  0.04784360  0.03950365    -0.03200
C1640       C  0.60887853  0.06030322  0.04998180    -0.18300
H1641       H  0.70779161  0.10617314  0.11922739     0.10800
H1642       H  0.66497296  0.08530442  0.10198528     0.10900
H1643       H  0.72005244  0.10510417  0.06077251     0.10500
H1644       H  0.76228296  0.12604341  0.07769917     0.11600
H1645       H  0.64316525  0.06435108  0.07522552     0.11700
H1646       H  0.68280584  0.10685095  0.04971534     0.13600
H1647       H  0.66333454  0.09223430  0.02281917     0.10200
H1648       H  0.62234469  0.07030221  0.00445899     0.12200
H1649       H  0.56391877  0.03560949  0.04442147     0.08900
H1650       H  0.60437401  0.05768432  0.06258721     0.11600
C1651       C  0.87540398  0.24877824  0.09143954    -0.03000
C1652       C  0.86961755  0.24248171  0.07515961    -0.05600
C1653       C  0.88150608  0.26453549  0.06382600    -0.20700
C1654       C  0.89933001  0.29335159  0.06848866     0.25000
C1655       C  0.90550843  0.29958117  0.08476811    -0.18200
C1656       C  0.89351069  0.27755889  0.09609966    -0.08200
C1657       C  0.91173861  0.31607266  0.05601840    -0.18500
C1658       C  0.92118531  0.34417302  0.05898852    -0.23300
C1659       C  0.93400647  0.36752389  0.04687128     0.27100
C1660       C  0.94815817  0.39621799  0.05222613    -0.20100
C1661       C  0.95995273  0.41910612  0.04144495    -0.09700
C1662       C  0.95778682  0.41385735  0.02498136    -0.10200
C1663       C  0.94383294  0.38518276  0.01956684    -0.03200
C1664       C  0.93196186  0.36222678  0.03037021    -0.18300
H1665       H  0.85585169  0.22048865  0.07115018     0.10800
H1666       H  0.87663789  0.25908022  0.05137360     0.10900
H1667       H  0.92006077  0.32127144  0.08887544     0.10500
H1668       H  0.89876341  0.28305845  0.10851110     0.11600
H1669       H  0.91262465  0.30902105  0.04405886     0.11700
H1670       H  0.91955564  0.35076056  0.07096099     0.13600
H1671       H  0.95004879  0.40098800  0.06483483     0.10200
H1672       H  0.97062922  0.44094853  0.04604864     0.12200
H1673       H  0.94174472  0.38044614  0.00695798     0.08900
H1674       H  0.92079312  0.34057772  0.02561467     0.11600
C1675       C  0.87321161  0.11358203  0.09827684    -0.03000
C1676       C  0.89446562  0.10749818  0.10376617    -0.05600
C1677       C  0.90573992  0.09481655  0.09361926    -0.20700
C1678       C  0.89616895  0.08823222  0.07782040     0.25000
C1679       C  0.87425459  0.09346991  0.07249221    -0.18200
C1680       C  0.86301234  0.10612659  0.08260154    -0.08200
C1681       C  0.90928700  0.07568625  0.06729052    -0.18500
C1682       C  0.91170906  0.07982087  0.05141581    -0.23300
C1683       C  0.92599185  0.06833106  0.04090112     0.27100
C1684       C  0.91970063  0.06526554  0.02455172    -0.20100
C1685       C  0.93249199  0.05410418  0.01435029    -0.09700
C1686       C  0.95190876  0.04590362  0.02035647    -0.10200
C1687       C  0.95878539  0.04977998  0.03663518    -0.03200
C1688       C  0.94619989  0.06103387  0.04675866    -0.18300
H1689       H  0.90271614  0.11297450  0.11578270     0.10800
H1690       H  0.92243088  0.09068134  0.09801894     0.10900
H1691       H  0.86556117  0.08763381  0.06059267     0.10500
H1692       H  0.84628737  0.11010810  0.07809942     0.11600
H1693       H  0.91798065  0.06347998  0.07303113     0.11700
H1694       H  0.90293001  0.09208925  0.04579824     0.13600
H1695       H  0.90454314  0.07116642  0.01969414     0.10200
H1696       H  0.92693545  0.05157741  0.00184544     0.12200
H1697       H  0.97411133  0.04422706  0.04161955     0.08900
H1698       H  0.95279733  0.06428443  0.05907967     0.11600
C1699       C  0.93127854  0.21958111  0.16348137    -0.03000
C1700       C  0.94405830  0.24923049  0.16685210    -0.05600
C1701       C  0.97115603  0.26401167  0.17420814    -0.20700
C1702       C  0.98611097  0.24958351  0.17847099     0.25000
C1703       C  0.97336605  0.21990896  0.17502934    -0.18200
C1704       C  0.94626584  0.20511940  0.16767992    -0.08200
C1705       C  0.51525814  0.26645479  0.18591612    -0.18500
C1706       C  0.52800535  0.25444307  0.19440759    -0.23300
C1707       C  0.55689778  0.27123717  0.20210838     0.27100
C1708       C  0.56375693  0.25847054  0.21469974    -0.20100
C1709       C  0.59035459  0.27349061  0.22249113    -0.09700
C1710       C  0.61074940  0.30176441  0.21791853    -0.10200
C1711       C  0.60458423  0.31408848  0.20485953    -0.03200
C1712       C  0.57790186  0.29908428  0.19703060    -0.18300
H1713       H  0.93321781  0.26109839  0.16371358     0.10800
H1714       H  0.98049984  0.28689670  0.17658212     0.10900
H1715       H  0.98443461  0.20805337  0.17761080     0.10500
H1716       H  0.93723791  0.18236823  0.16507139     0.11600
H1717       H  0.52593645  0.28979925  0.18489601     0.11700
H1718       H  0.51624206  0.23135959  0.19662870     0.13600
H1719       H  0.54825516  0.23689712  0.21871150     0.10200
H1720       H  0.59483718  0.26321984  0.23232527     0.12200
H1721       H  0.62006945  0.33567262  0.20095844     0.08900
H1722       H  0.57396441  0.30931053  0.18701717     0.11600
C1723       C  0.79213212  0.07779775  0.17098383    -0.03000
C1724       C  0.81049229  0.07106416  0.17968885    -0.05600
C1725       C  0.79917036  0.04533541  0.18835450    -0.20700
C1726       C  0.76938949  0.02546669  0.18816380     0.25000
C1727       C  0.75090423  0.03260949  0.17986950    -0.18200
C1728       C  0.76216943  0.05855384  0.17142527    -0.08200
C1729       C  0.75832053  0.49760177  0.19675408    -0.18500
C1730       C  0.73504030  0.47295768  0.19178739    -0.23300
C1731       C  0.72331077  0.44456186  0.19997510     0.27100
C1732       C  0.69494659  0.42279126  0.19642704    -0.20100
C1733       C  0.68228766  0.39633452  0.20445097    -0.09700
C1734       C  0.69775903  0.39108240  0.21614898    -0.10200
C1735       C  0.72674982  0.41198609  0.21898057    -0.03200
C1736       C  0.73939278  0.43852829  0.21105225    -0.18300
H1737       H  0.83367964  0.08559181  0.17968379     0.10800
H1738       H  0.81380219  0.04052388  0.19484481     0.10900
H1739       H  0.72772460  0.01825114  0.17991039     0.10500
H1740       H  0.74746259  0.06318500  0.16487747     0.11600
H1741       H  0.77044006  0.49750618  0.20708203     0.11700
H1742       H  0.72356226  0.47355184  0.18125069     0.13600
H1743       H  0.68218705  0.42662708  0.18778992     0.10200
H1744       H  0.65995505  0.38060558  0.20206746     0.12200
H1745       H  0.73924536  0.40811843  0.22776756     0.08900
H1746       H  0.76165765  0.45411705  0.21374587     0.11600
C1747       C  0.79205325  0.21848749  0.16676892    -0.03000
C1748       C  0.80946053  0.24804682  0.17015574    -0.05600
C1749       C  0.79821869  0.26294223  0.17843800    -0.20700
C1750       C  0.76925366  0.24880547  0.18344697     0.25000
C1751       C  0.75192199  0.21904260  0.18035626    -0.18200
C1752       C  0.76320582  0.20410033  0.17207960    -0.08200
C1753       C  0.75843550  0.26586680  0.19214337    -0.18500
C1754       C  0.73019496  0.25763139  0.19380423    -0.23300
C1755       C  0.71952876  0.27499990  0.20234231     0.27100
C1756       C  0.69104854  0.26893875  0.19958121    -0.20100
C1757       C  0.67981132  0.28412283  0.20762939    -0.09700
C1758       C  0.69669947  0.30542450  0.21877899    -0.10200
C1759       C  0.72528640  0.31186221  0.22143365    -0.03200
C1760       C  0.73654327  0.29668001  0.21342810    -0.18300
H1761       H  0.83181865  0.25980767  0.16632084     0.10800
H1762       H  0.81217245  0.28574189  0.18078492     0.10900
H1763       H  0.72977209  0.20703510  0.18442397     0.10500
H1764       H  0.74924998  0.18130315  0.16975278     0.11600
H1765       H  0.77467635  0.28673410  0.19664615     0.11700
H1766       H  0.71402132  0.23791337  0.18814161     0.13600
H1767       H  0.67737359  0.25228848  0.19120117     0.10200
H1768       H  0.65767088  0.27874038  0.20543991     0.12200
H1769       H  0.73888412  0.32852456  0.22980960     0.08900
H1770       H  0.75831046  0.30168836  0.21627558     0.11600
C1771       C  0.69538861  0.39408759  0.25222502    -0.03000
C1772       C  0.71276349  0.39773589  0.26549834    -0.05600
C1773       C  0.72685727  0.42414498  0.27350226    -0.20700
C1774       C  0.72348285  0.44743743  0.26866769     0.25000
C1775       C  0.70510812  0.44350500  0.25572824    -0.18200
C1776       C  0.69096589  0.41697892  0.24772280    -0.08200
C1777       C  0.74046188  0.47553935  0.27708344    -0.18500
C1778       C  0.73377150  0.49676759  0.27711521    -0.23300
C1779       C  0.75084498  0.02423584  0.28609892     0.27100
C1780       C  0.73702698  0.03917497  0.29144644    -0.20100
C1781       C  0.75220524  0.06472306  0.30019810    -0.09700
C1782       C  0.78174187  0.07616049  0.30366391    -0.10200
C1783       C  0.79579380  0.06162916  0.29792499    -0.03200
C1784       C  0.78056191  0.03599521  0.28923091    -0.18300
H1785       H  0.71612172  0.38042427  0.26947486     0.10800
H1786       H  0.74072266  0.42646104  0.28347351     0.10900
H1787       H  0.70214275  0.46095065  0.25146327     0.10500
H1788       H  0.67698801  0.41454747  0.23780851     0.11600
H1789       H  0.75857444  0.47816705  0.28422281     0.11700
H1790       H  0.71419802  0.49335821  0.27124575     0.13600
H1791       H  0.71424180  0.03077327  0.28907764     0.10200
H1792       H  0.74068904  0.07538472  0.30436208     0.12200
H1793       H  0.81855345  0.06992785  0.30025505     0.08900
H1794       H  0.79222817  0.52566255  0.28485512     0.11600
C1795       C  0.92970134  0.21224453  0.30578027    -0.03000
C1796       C  0.94109290  0.19479729  0.30076486    -0.05600
C1797       C  0.96838145  0.20702208  0.29360566    -0.20700
C1798       C  0.98495738  0.23694950  0.29117632     0.25000
C1799       C  0.97351395  0.25444215  0.29611607    -0.18200
C1800       C  0.94619570  0.24221019  0.30327590    -0.08200
C1801       C  0.51440413  0.24915011  0.28405545    -0.18500
C1802       C  0.52817375  0.27496551  0.27667032    -0.23300
C1803       C  0.55715478  0.28706310  0.26907299     0.27100
C1804       C  0.56409152  0.30700385  0.25666747    -0.20100
C1805       C  0.59070817  0.31864792  0.24891379    -0.09700
C1806       C  0.61107393  0.31059457  0.25335184    -0.10200
C1807       C  0.60494215  0.29179093  0.26626742    -0.03200
C1808       C  0.57810700  0.27997338  0.27405066    -0.18300
H1809       H  0.92907533  0.17164744  0.30255330     0.10800
H1810       H  0.97663649  0.19301321  0.29000585     0.10900
H1811       H  0.98584031  0.27767278  0.29492705     0.10500
H1812       H  0.93829159  0.25634228  0.30717693     0.11600
H1813       H  0.52440163  0.23573625  0.28427303     0.11700
H1814       H  0.51705524  0.28714817  0.27513725     0.13600
H1815       H  0.54861405  0.31320523  0.25274370     0.10200
H1816       H  0.59520623  0.33356889  0.23917060     0.12200
H1817       H  0.62050641  0.28557157  0.26998163     0.08900
H1818       H  0.57390055  0.26543246  0.28393094     0.11600
C1819       C  0.69800054  0.30942216  0.25467329    -0.03000
C1820       C  0.72381794  0.32773931  0.26265371    -0.05600
C1821       C  0.73824636  0.31633235  0.27128725    -0.20700
C1822       C  0.72733288  0.28636415  0.27204480     0.25000
C1823       C  0.70098800  0.26799174  0.26423353    -0.18200
C1824       C  0.68661411  0.27948713  0.25557971    -0.08200
C1825       C  0.74422881  0.27556674  0.28108286    -0.18500
C1826       C  0.73949652  0.24830708  0.28027357    -0.23300
C1827       C  0.75647967  0.23766480  0.28926414     0.27100
C1828       C  0.74379456  0.20788934  0.29197344    -0.20100
C1829       C  0.75867383  0.19659853  0.30022058    -0.09700
C1830       C  0.78692253  0.21476246  0.30587009    -0.10200
C1831       C  0.80001845  0.24456559  0.30285110    -0.03200
C1832       C  0.78496210  0.25594318  0.29466963    -0.18300
H1833       H  0.73347435  0.35089188  0.26166901     0.10800
H1834       H  0.75841505  0.33107246  0.27711730     0.10900
H1835       H  0.69119639  0.24479399  0.26470724     0.10500
H1836       H  0.66674066  0.26503755  0.24940918     0.11600
H1837       H  0.76154039  0.29104458  0.28862028     0.11700
H1838       H  0.72205776  0.23253534  0.27295517     0.13600
H1839       H  0.72205170  0.19323434  0.28782488     0.10200
H1840       H  0.74792190  0.17351835  0.30220023     0.12200
H1841       H  0.82178359  0.25914208  0.30696427     0.08900
H1842       H  0.79588853  0.27891520  0.29242426     0.11600
C1843       C  0.75024243  0.13028151  0.37907704    -0.03000
C1844       C  0.75676336  0.13707984  0.39526234    -0.05600
C1845       C  0.73480229  0.12682303  0.40663198    -0.20700
C1846       C  0.70585383  0.10926398  0.40215042     0.25000
C1847       C  0.69919759  0.10304904  0.38589195    -0.18200
C1848       C  0.72120628  0.11340347  0.37448685    -0.08200
C1849       C  0.68338908  0.09830393  0.41477858    -0.18500
C1850       C  0.65720123  0.07471576  0.41298580    -0.23300
C1851       C  0.63442621  0.06390100  0.42538864     0.27100
C1852       C  0.60559975  0.04771070  0.42047078    -0.20100
C1853       C  0.58322388  0.03727806  0.43154137    -0.09700
C1854       C  0.58910549  0.04252617  0.44788971    -0.10200
C1855       C  0.61804153  0.05807800  0.45292863    -0.03200
C1856       C  0.64055824  0.06870527  0.44176801    -0.18300
H1857       H  0.77892832  0.15027804  0.39920488     0.10800
H1858       H  0.74049848  0.13224927  0.41901477     0.10900
H1859       H  0.67708783  0.09052674  0.38182668     0.10500
H1860       H  0.71549974  0.10804012  0.36210761     0.11600
H1861       H  0.68895232  0.10989057  0.42599530     0.11700
H1862       H  0.65159921  0.06304529  0.40180638     0.13600
H1863       H  0.60032365  0.04345901  0.40796402     0.10200
H1864       H  0.56120647  0.02513158  0.42721095     0.12200
H1865       H  0.62325609  0.06214609  0.46544116     0.08900
H1866       H  0.66261295  0.08028831  0.44603489     0.11600
C1867       C  0.95345236  0.41326192  0.44667113    -0.03000
C1868       C  0.94844078  0.41884815  0.43098337    -0.05600
C1869       C  0.93719156  0.39687908  0.41965266    -0.20700
C1870       C  0.93112273  0.36897677  0.42365588     0.25000
C1871       C  0.93514452  0.36305110  0.43948043    -0.18200
C1872       C  0.94621227  0.38503098  0.45088224    -0.08200
C1873       C  0.92043504  0.34669251  0.41102919    -0.18500
C1874       C  0.92464963  0.32391880  0.41133718    -0.23300
C1875       C  0.91327035  0.30135572  0.39890534     0.27100
C1876       C  0.90455717  0.27297061  0.40338333    -0.20100
C1877       C  0.89222550  0.25072331  0.39227372    -0.09700
C1878       C  0.88872643  0.25643655  0.37632750    -0.10200
C1879       C  0.89867691  0.28510688  0.37165672    -0.03200
C1880       C  0.91084548  0.30742639  0.38286764    -0.18300
H1881       H  0.95342387  0.44031705  0.42739174     0.10800
H1882       H  0.93384768  0.40185430  0.40761908     0.10900
H1883       H  0.92961759  0.34149536  0.44315176     0.10500
H1884       H  0.94952766  0.38003180  0.46290662     0.11600
H1885       H  0.90936073  0.34960735  0.40097784     0.11700
H1886       H  0.93564975  0.32082436  0.42135007     0.13600
H1887       H  0.90654706  0.26787287  0.41562470     0.10200
H1888       H  0.88507546  0.22891284  0.39628162     0.12200
H1889       H  0.89660165  0.29020802  0.35944158     0.08900
H1890       H  0.91833726  0.32933812  0.37896371     0.11600
C1891       C  0.95344023  0.04587606  0.45111528    -0.03000
C1892       C  0.93773197  0.05821176  0.45747789    -0.05600
C1893       C  0.92541784  0.06997819  0.44739184    -0.20700
C1894       C  0.92824260  0.06927092  0.43081202     0.25000
C1895       C  0.94433992  0.05731950  0.42449332    -0.18200
C1896       C  0.95666357  0.04567907  0.43452369    -0.08200
C1897       C  0.91510774  0.08208913  0.42046117    -0.18500
C1898       C  0.90735853  0.07388363  0.40524448    -0.23300
C1899       C  0.89523357  0.08738643  0.39463979     0.27100
C1900       C  0.89814179  0.08611782  0.37809017    -0.20100
C1901       C  0.88771172  0.09935877  0.36773613    -0.09700
C1902       C  0.87394688  0.11390986  0.37379209    -0.10200
C1903       C  0.87027670  0.11434463  0.39034749    -0.03200
C1904       C  0.88066723  0.10118459  0.40064163    -0.18300
H1905       H  0.93500472  0.05881366  0.47020336     0.10800
H1906       H  0.91342048  0.07943695  0.45254451     0.10900
H1907       H  0.94802790  0.05739042  0.41184697     0.10500
H1908       H  0.96886402  0.03658667  0.42921049     0.11600
H1909       H  0.91181101  0.09879568  0.42568620     0.11700
H1910       H  0.91061685  0.05709153  0.40010042     0.13600
H1911       H  0.90899541  0.07528903  0.37317139     0.10200
H1912       H  0.89072339  0.09850629  0.35505336     0.12200
H1913       H  0.85935233  0.12496438  0.39543764     0.08900
H1914       H  0.87689204  0.10165800  0.41324157     0.11600
C1915       C  0.54336257  0.08964027  0.94824878    -0.03000
C1916       C  0.52876547  0.10510702  0.94573456    -0.05600
C1917       C  0.54023295  0.12892461  0.93553593    -0.20700
C1918       C  0.56617445  0.13745454  0.92734688     0.25000
C1919       C  0.58086033  0.12204296  0.92980407    -0.18200
C1920       C  0.56961709  0.09845193  0.94022056    -0.08200
C1921       C  0.57783433  0.16326860  0.91693062    -0.18500
C1922       C  0.59382880  0.16675129  0.90384559    -0.23300
C1923       C  0.60449344  0.19260779  0.89349792     0.27100
C1924       C  0.60703953  0.19001531  0.87703991    -0.20100
C1925       C  0.61690055  0.21415184  0.86708628    -0.09700
C1926       C  0.62499293  0.24147438  0.87348695    -0.10200
C1927       C  0.62274728  0.24402553  0.89000268    -0.03200
C1928       C  0.61262339  0.21991696  0.89988511    -0.18300
H1929       H  0.50859050  0.09899975  0.95178462     0.10800
H1930       H  0.52867039  0.14062322  0.93393933     0.10900
H1931       H  0.60128668  0.12852183  0.92396405     0.10500
H1932       H  0.58142512  0.08703108  0.94193324     0.11600
H1933       H  0.57148941  0.17921676  0.91964959     0.11700
H1934       H  0.59774691  0.14954703  0.90008938     0.13600
H1935       H  0.60108869  0.16920669  0.87186600     0.10200
H1936       H  0.61853355  0.21148818  0.85442405     0.12200
H1937       H  0.62894489  0.26475319  0.89535304     0.08900
H1938       H  0.61168145  0.22282301  0.91256894     0.11600
C1939       C  0.91093230  0.44971575  0.94887469    -0.03000
C1940       C  0.89620739  0.41954425  0.94703223    -0.05600
C1941       C  0.87300339  0.40598329  0.93645170    -0.20700
C1942       C  0.86438143  0.42226688  0.92724782     0.25000
C1943       C  0.87907007  0.45245213  0.92904411    -0.18200
C1944       C  0.90202026  0.46600512  0.93980172    -0.08200
C1945       C  0.83891907  0.40702230  0.91663962    -0.18500
C1946       C  0.83574982  0.41853877  0.90306852    -0.23300
C1947       C  0.80939530  0.40377910  0.89302325     0.27100
C1948       C  0.81143896  0.40960414  0.87665315    -0.20100
C1949       C  0.78668557  0.39715525  0.86707419    -0.09700
C1950       C  0.75927210  0.37898884  0.87375084    -0.10200
C1951       C  0.75728965  0.37312765  0.89013994    -0.03200
C1952       C  0.78203422  0.38535368  0.89966688    -0.18300
H1953       H  0.90246704  0.40635279  0.95385871     0.10800
H1954       H  0.86182847  0.38268059  0.93538299     0.10900
H1955       H  0.87245859  0.46557147  0.92243292     0.10500
H1956       H  0.91288886  0.48927771  0.94094494     0.11600
H1957       H  0.82272449  0.38516925  0.91990363     0.11700
H1958       H  0.85328675  0.43914320  0.89895047     0.13600
H1959       H  0.83224648  0.42388932  0.87127250     0.10200
H1960       H  0.78898026  0.40212278  0.85449060     0.12200
H1961       H  0.73653069  0.35928800  0.89567461     0.08900
H1962       H  0.77951171  0.38101055  0.91230810     0.11600
C1963       C  0.54955543  0.45600134  0.95258635    -0.03000
C1964       C  0.57952250  0.47171741  0.94978289    -0.05600
C1965       C  0.59264620  0.46077428  0.93973333    -0.20700
C1966       C  0.57609097  0.43416272  0.93205511     0.25000
C1967       C  0.54621511  0.41807091  0.93512604    -0.18200
C1968       C  0.53311394  0.42885655  0.94533071    -0.08200
C1969       C  0.59077746  0.42349340  0.92128548    -0.18500
C1970       C  0.57759406  0.40628404  0.90870335    -0.23300
C1971       C  0.59234666  0.39578580  0.89783519     0.27100
C1972       C  0.58238123  0.38837553  0.88214382    -0.20100
C1973       C  0.59551559  0.37803887  0.87166279    -0.09700
C1974       C  0.61855740  0.37437118  0.87678405    -0.10200
C1975       C  0.62827586  0.38140698  0.89254689    -0.03200
C1976       C  0.61537564  0.39204513  0.90295956    -0.18300
H1977       H  0.59285096  0.49258746  0.95528493     0.10800
H1978       H  0.61575699  0.47339825  0.93771690     0.10900
H1979       H  0.53296289  0.39704239  0.92979785     0.10500
H1980       H  0.51001981  0.41612429  0.94733132     0.11600
H1981       H  0.61363493  0.43150369  0.92329457     0.11700
H1982       H  0.55559616  0.40074462  0.90577103     0.13600
H1983       H  0.56447097  0.39076045  0.87795362     0.10200
H1984       H  0.58738706  0.37255098  0.85961886     0.12200
H1985       H  0.64593913  0.37872978  0.89684669     0.08900
H1986       H  0.62310375  0.39668537  0.91508811     0.11600
C1987       C  0.88983319  0.18871687  0.75416198    -0.03000
C1988       C  0.90837493  0.17792571  0.75055393    -0.05600
C1989       C  0.93477385  0.18848494  0.75843557    -0.20700
C1990       C  0.94317822  0.21003624  0.77007098     0.25000
C1991       C  0.92383228  0.21974695  0.77423912    -0.18200
C1992       C  0.89734259  0.20909291  0.76634185    -0.08200
C1993       C  0.97208075  0.22153158  0.77762506    -0.18500
C1994       C  0.98658845  0.24790015  0.78434121    -0.23300
C1995       C  0.51598331  0.26030900  0.79144024     0.27100
C1996       C  0.53169593  0.29016296  0.79420516    -0.20100
C1997       C  0.55897890  0.30290549  0.80128570    -0.09700
C1998       C  0.57130450  0.28608237  0.80585585    -0.10200
C1999       C  0.55573143  0.25618418  0.80301604    -0.03200
C2000       C  0.52830568  0.24337721  0.79595578    -0.18300
H2001       H  0.90265967  0.16175277  0.74136849     0.10800
H2002       H  0.94897690  0.18026652  0.75516677     0.10900
H2003       H  0.92897091  0.23549957  0.78357128     0.10500
H2004       H  0.88311703  0.21739435  0.76938910     0.11600
H2005       H  0.98232394  0.20844381  0.77664688     0.11700
H2006       H  0.97719213  0.26182350  0.78400931     0.13600
H2007       H  0.52275036  0.30373961  0.79094690     0.10200
H2008       H  0.57026934  0.32598418  0.80335398     0.12200
H2009       H  0.56442015  0.24255441  0.80660442     0.08900
H2010       H  0.51670745  0.22020221  0.79447907     0.11600
C2011       C  0.80602636  0.10927361  0.75347761    -0.03000
C2012       C  0.81663828  0.09041934  0.75046756    -0.05600
C2013       C  0.80562961  0.06438178  0.75875879    -0.20700
C2014       C  0.78368522  0.05660151  0.77013306     0.25000
C2015       C  0.77380840  0.07605120  0.77352877    -0.18200
C2016       C  0.78495305  0.10216857  0.76525839    -0.08200
C2017       C  0.77206092  0.02829695  0.77830871    -0.18500
C2018       C  0.74543195  0.01397811  0.78481370    -0.23300
C2019       C  0.73339285  0.48513246  0.79246281     0.27100
C2020       C  0.70327691  0.46790655  0.79410575    -0.20100
C2021       C  0.69108582  0.44081703  0.80141759    -0.09700
C2022       C  0.70880904  0.43034800  0.80725492    -0.10200
C2023       C  0.73895546  0.44763461  0.80567996    -0.03200
C2024       C  0.75113911  0.47478176  0.79849184    -0.18300
H2025       H  0.83321640  0.09574855  0.74155260     0.10800
H2026       H  0.81392522  0.05001940  0.75607097     0.10900
H2027       H  0.75764782  0.07132210  0.78258679     0.10500
H2028       H  0.77653157  0.11641918  0.76776946     0.11600
H2029       H  0.78535852  0.01820160  0.77798449     0.11700
H2030       H  0.73114475  0.02290069  0.78378800     0.13600
H2031       H  0.68910276  0.47542610  0.78969060     0.10200
H2032       H  0.66778488  0.42811353  0.80253018     0.12200
H2033       H  0.75325498  0.44043746  0.81030137     0.08900
H2034       H  0.77444886  0.48770669  0.79802392     0.11600
C2035       C  0.80832094  0.19842219  0.75531018    -0.03000
C2036       C  0.78940449  0.18380577  0.76789247    -0.05600
C2037       C  0.77593067  0.19655893  0.77621519    -0.20700
C2038       C  0.78121677  0.22434918  0.77224887     0.25000
C2039       C  0.80149740  0.23962528  0.76015801    -0.18200
C2040       C  0.81507270  0.22687310  0.75193419    -0.08200
C2041       C  0.76450056  0.23584921  0.78079928    -0.18500
C2042       C  0.76697897  0.26190916  0.77814185    -0.23300
C2043       C  0.74956100  0.27240781  0.78672341     0.27100
C2044       C  0.76074509  0.30227342  0.78826367    -0.20100
C2045       C  0.74523516  0.31308595  0.79634264    -0.09700
C2046       C  0.71788596  0.29423812  0.80286250    -0.10200
C2047       C  0.70628791  0.26433389  0.80093608    -0.03200
C2048       C  0.72192172  0.25350948  0.79295769    -0.18300
H2049       H  0.78410774  0.16207240  0.77090657     0.10800
H2050       H  0.76073232  0.18431755  0.78555730     0.10900
H2051       H  0.80680912  0.26116319  0.75669691     0.10500
H2052       H  0.83027466  0.23897961  0.74257250     0.11600
H2053       H  0.74940823  0.22198296  0.78982464     0.11700
H2054       H  0.78291644  0.27683678  0.76982745     0.13600
H2055       H  0.78180792  0.31731827  0.78341461     0.10200
H2056       H  0.75478651  0.33625307  0.79756821     0.12200
H2057       H  0.68527512  0.24923317  0.80580170     0.08900
H2058       H  0.71210465  0.23038640  0.79155542     0.11600
C2059       C  0.57463523  0.28841459  0.66917044    -0.03000
C2060       C  0.57573118  0.29099396  0.68583880    -0.05600
C2061       C  0.55015728  0.27958518  0.69477129    -0.20700
C2062       C  0.52302075  0.26526567  0.68726214     0.25000
C2063       C  0.52203164  0.26319861  0.67057277    -0.18200
C2064       C  0.54746280  0.27443683  0.66168822    -0.08200
C2065       C  0.99622217  0.25352653  0.69705344    -0.18500
C2066       C  0.97036853  0.23207156  0.69199820    -0.23300
C2067       C  0.94322501  0.21996061  0.70144873     0.27100
C2068       C  0.92059544  0.19222067  0.69767657    -0.20100
C2069       C  0.89467787  0.17982931  0.70621765    -0.09700
C2070       C  0.89058842  0.19506222  0.71853884    -0.10200
C2071       C  0.91284518  0.22316857  0.72206410    -0.03200
C2072       C  0.93897906  0.23550465  0.71366080    -0.18300
H2073       H  0.59630273  0.30187438  0.69197201     0.10800
H2074       H  0.55156902  0.28181763  0.70759806     0.10900
H2075       H  0.50172002  0.25344493  0.66421745     0.10500
H2076       H  0.54575510  0.27241929  0.64886731     0.11600
H2077       H  0.99824499  0.26204158  0.70899437     0.11700
H2078       H  0.96903921  0.22173718  0.68067541     0.13600
H2079       H  0.92319495  0.17981552  0.68827903     0.10200
H2080       H  0.87832718  0.15797791  0.70354227     0.12200
H2081       H  0.91003860  0.23550621  0.73141898     0.08900
H2082       H  0.95549581  0.25726138  0.71661603     0.11600
C2083       C  0.70929700  0.42776592  0.66682267    -0.03000
C2084       C  0.70729486  0.42758014  0.68347425    -0.05600
C2085       C  0.71890284  0.45351939  0.69195447    -0.20700
C2086       C  0.73280415  0.48024907  0.68404173     0.25000
C2087       C  0.73435839  0.48038135  0.66731428    -0.18200
C2088       C  0.72280755  0.45446668  0.65885164    -0.08200
C2089       C  0.74475646  0.00715656  0.69374340    -0.18500
C2090       C  0.76232947  0.03396630  0.68805244    -0.23300
C2091       C  0.77468557  0.06036428  0.69812516     0.27100
C2092       C  0.80010266  0.08492451  0.69308730    -0.20100
C2093       C  0.81310419  0.10982313  0.70245867    -0.09700
C2094       C  0.80113756  0.11081463  0.71716405    -0.10200
C2095       C  0.77452456  0.08689736  0.72165432    -0.03200
C2096       C  0.76155799  0.06187070  0.71233923    -0.18300
H2097       H  0.69675370  0.40739888  0.68996892     0.10800
H2098       H  0.71709042  0.45267305  0.70480315     0.10900
H2099       H  0.74408131  0.50021662  0.66057457     0.10500
H2100       H  0.72448659  0.45540989  0.64600234     0.11600
H2101       H  0.73962848  0.00445731  0.70633442     0.11700
H2102       H  0.76950655  0.03691615  0.67579516     0.13600
H2103       H  0.81028837  0.08469008  0.68198202     0.10200
H2104       H  0.83277467  0.12801400  0.69820146     0.12200
H2105       H  0.76356847  0.08748142  0.73235005     0.08900
H2106       H  0.74112215  0.04401711  0.71623148     0.11600
C2107       C  0.71348654  0.28817503  0.66906844    -0.03000
C2108       C  0.71407981  0.28968209  0.68576723    -0.05600
C2109       C  0.72605792  0.27603895  0.69467631    -0.20700
C2110       C  0.73783415  0.26077551  0.68710254     0.25000
C2111       C  0.73696641  0.25903829  0.67041081    -0.18200
C2112       C  0.72507269  0.27265711  0.66153143    -0.08200
C2113       C  0.74974157  0.24594296  0.69691806    -0.18500
C2114       C  0.76989419  0.23981164  0.69151841    -0.23300
C2115       C  0.78180441  0.22488019  0.70119483     0.27100
C2116       C  0.80950218  0.22946381  0.69760174    -0.20100
C2117       C  0.82153789  0.21592029  0.70645905    -0.09700
C2118       C  0.80599802  0.19738087  0.71901386    -0.10200
C2119       C  0.77782989  0.19180799  0.72223265    -0.03200
C2120       C  0.76586791  0.20553305  0.71347653    -0.18300
H2121       H  0.70523272  0.30132919  0.69195970     0.10800
H2122       H  0.72620927  0.27747912  0.70752438     0.10900
H2123       H  0.74484727  0.24666436  0.66412566     0.10500
H2124       H  0.72468326  0.27070543  0.64870717     0.11600
H2125       H  0.74250786  0.24106309  0.70917346     0.11700
H2126       H  0.77924315  0.24727813  0.67981383     0.13600
H2127       H  0.82205145  0.24393234  0.68805371     0.10200
H2128       H  0.84321256  0.22033509  0.70370225     0.12200
H2129       H  0.76511437  0.17687307  0.73157630     0.08900
H2130       H  0.74404168  0.20057980  0.71618762     0.11600
C2131       C  0.62526208  0.24236902  0.59740853    -0.03000
C2132       C  0.64225907  0.22972587  0.59385362    -0.05600
C2133       C  0.63177396  0.20571657  0.58382447    -0.20700
C2134       C  0.60427257  0.19400752  0.57689844     0.25000
C2135       C  0.58705671  0.20640782  0.58060804    -0.18200
C2136       C  0.59749226  0.23035549  0.59071720    -0.08200
C2137       C  0.59428017  0.16867402  0.56612608    -0.18500
C2138       C  0.57386249  0.16175597  0.55487519    -0.23300
C2139       C  0.56400411  0.13685126  0.54380132     0.27100
C2140       C  0.53723701  0.12652892  0.53618556    -0.20100
C2141       C  0.52697782  0.10333671  0.52560109    -0.09700
C2142       C  0.54341881  0.09003266  0.52222092    -0.10200
C2143       C  0.57055184  0.10073893  0.52953988    -0.03200
C2144       C  0.58074835  0.12386787  0.54023795    -0.18300
H2145       H  0.66369763  0.23833207  0.59885629     0.10800
H2146       H  0.64538425  0.19645660  0.58130926     0.10900
H2147       H  0.56536670  0.19751230  0.57598183     0.10500
H2148       H  0.58378893  0.23947406  0.59327272     0.11600
H2149       H  0.60476767  0.15584199  0.56736570     0.11700
H2150       H  0.56356169  0.17475958  0.55363519     0.13600
H2151       H  0.52402417  0.13628759  0.53855420     0.10200
H2152       H  0.00608023  0.09578941  0.52008778     0.12200
H2153       H  0.58380036  0.09105952  0.52712737     0.08900
H2154       H  0.60189716  0.13167209  0.54543079     0.11600
C2155       C  0.75698375  0.38117817  0.59691546    -0.03000
C2156       C  0.76824782  0.40989149  0.59188688    -0.05600
C2157       C  0.79160167  0.42245366  0.58136219    -0.20700
C2158       C  0.80415373  0.40663372  0.57548816     0.25000
C2159       C  0.79319732  0.37799530  0.58070655    -0.18200
C2160       C  0.76984824  0.36542863  0.59129170    -0.08200
C2161       C  0.82904724  0.42125692  0.56434929    -0.18500
C2162       C  0.83781119  0.40726447  0.55443824    -0.23300
C2163       C  0.86268891  0.42223189  0.54328553     0.27100
C2164       C  0.87574466  0.40694674  0.53729975    -0.20100
C2165       C  0.89939238  0.42019750  0.52695933    -0.09700
C2166       C  0.91045959  0.44908014  0.52227843    -0.10200
C2167       C  0.89699891  0.46420930  0.52797009    -0.03200
C2168       C  0.87331186  0.45093706  0.53826930    -0.18300
H2169       H  0.75894604  0.42269389  0.59602170     0.10800
H2170       H  0.79973143  0.44460219  0.57766585     0.10900
H2171       H  0.80273563  0.36526565  0.57689346     0.10500
H2172       H  0.76180002  0.34332239  0.59500879     0.11600
H2173       H  0.84025517  0.44464790  0.56429916     0.11700
H2174       H  0.82672049  0.38386634  0.55452894     0.13600
H2175       H  0.86782864  0.38473148  0.54078776     0.10200
H2176       H  0.90909857  0.40783230  0.52271641     0.12200
H2177       H  0.90471827  0.48635584  0.52444421     0.08900
H2178       H  0.86330143  0.46324917  0.54202909     0.11600
C2179       C  0.61646442  0.37333574  0.59668670    -0.03000
C2180       C  0.58760589  0.35545875  0.59194479    -0.05600
C2181       C  0.57454392  0.36550468  0.58128083    -0.20700
C2182       C  0.59005735  0.39348767  0.57498695     0.25000
C2183       C  0.61869145  0.41172418  0.58006807    -0.18200
C2184       C  0.63175098  0.40171160  0.59078170    -0.08200
C2185       C  0.57537530  0.40303755  0.56350311    -0.18500
C2186       C  0.58965663  0.42367763  0.55249585    -0.23300
C2187       C  0.57521115  0.43385901  0.54120375     0.27100
C2188       C  0.59154545  0.46145830  0.53452620    -0.20100
C2189       C  0.57876224  0.47239927  0.52424341    -0.09700
C2190       C  0.54934465  0.45577955  0.52021721    -0.10200
C2191       C  0.53317382  0.42775042  0.52648408    -0.03200
C2192       C  0.54593680  0.41686689  0.53685527    -0.18300
H2193       H  0.57514057  0.33356095  0.59634960     0.10800
H2194       H  0.55234899  0.35117503  0.57772574     0.10900
H2195       H  0.63100291  0.43381527  0.57597563     0.10500
H2196       H  0.65389371  0.41616817  0.59435717     0.11600
H2197       H  0.55197126  0.39224556  0.56410329     0.11700
H2198       H  0.61306974  0.43427010  0.55191859     0.13600
H2199       H  0.61420515  0.47486199  0.53751691     0.10200
H2200       H  0.59191765  0.49398083  0.51953285     0.12200
H2201       H  0.51052801  0.41429946  0.52352172     0.08900
H2202       H  0.53280960  0.39510011  0.54126786     0.11600
Zn2203     Zn  0.68442208  0.87256414  0.62506586     1.49700
Zn2204     Zn  0.68788107  0.81486669  0.62596348     1.49400
Zn2205     Zn  0.66713594  0.83467076  0.65716791     1.49100
Zn2206     Zn  0.62666091  0.81159777  0.62596810     1.49500
O2207       O  0.66650516  0.83338531  0.63367308    -1.83900
O2208       O  0.71904691  0.88171004  0.61153612    -0.74600
O2209       O  0.70170076  0.80093152  0.64428497    -0.74400
O2210       O  0.68672240  0.87631012  0.66495901    -0.73900
O2211       O  0.72225807  0.84192217  0.61256476    -0.74600
O2212       O  0.69745867  0.90169186  0.64257502    -0.74200
O2213       O  0.68828006  0.81464400  0.66611661    -0.74800
O2214       O  0.59894572  0.79785332  0.64435215    -0.74100
O2215       O  0.66295856  0.78035157  0.61228194    -0.74900
O2216       O  0.62613472  0.81439512  0.66604888    -0.74300
O2217       O  0.61997496  0.77737521  0.61248613    -0.74800
O2218       O  0.61653543  0.83619165  0.61227351    -0.74700
O2219       O  0.65692719  0.87857844  0.61141193    -0.74500
C2220       C  0.73153765  0.86759788  0.60763120     0.77300
C2221       C  0.70051445  0.80208951  0.65937755     0.77800
C2222       C  0.69719787  0.90044229  0.65768838     0.76800
C2223       C  0.60137292  0.80079493  0.65940528     0.77200
C2224       C  0.63659618  0.76799398  0.60796257     0.78300
C2225       C  0.63067634  0.86218147  0.60741213     0.77300
C2226       C  0.83325594  0.66778267  0.72089191     0.45700
H2227       H  0.83334808  0.66889049  0.70771065    -0.03400
C2228       C  0.83306819  0.66604296  0.75188096     0.45700
H2229       H  0.83323405  0.66524196  0.76508483    -0.03400
C2230       C  0.81630411  0.63686610  0.72762672    -0.17100
C2231       C  0.86365413  0.68117786  0.72822243    -0.16800
C2232       C  0.81932053  0.68386426  0.72869887    -0.17200
C2233       C  0.81665050  0.63609032  0.74402304    -0.17200
C2234       C  0.86345738  0.67982418  0.74453068    -0.16700
C2235       C  0.81950137  0.68335291  0.74507118    -0.17100
Zn2236     Zn  0.70616428  0.85635154  0.83085151     1.49700
Zn2237     Zn  0.64787572  0.79424206  0.83024913     1.49400
Zn2238     Zn  0.66737954  0.83299149  0.86189081     1.49100
Zn2239     Zn  0.64461722  0.85271732  0.83200748     1.49500
O2240       O  0.66642920  0.83393791  0.83867335    -1.83900
O2241       O  0.71587648  0.83206420  0.81663616    -0.74600
O2242       O  0.63545576  0.76489315  0.84813910    -0.74400
O2243       O  0.70812303  0.85262888  0.87039282    -0.73900
O2244       O  0.67615028  0.78884127  0.81648963    -0.74600
O2245       O  0.73517159  0.86993926  0.84876710    -0.74200
O2246       O  0.64765967  0.79218281  0.86981338    -0.74800
O2247       O  0.62900512  0.86392521  0.85090322    -0.74100
O2248       O  0.61150383  0.78485154  0.81771688    -0.74900
O2249       O  0.64696164  0.85234744  0.87161429    -0.74300
O2250       O  0.61026091  0.82576874  0.81891048    -0.74800
O2251       O  0.66954124  0.88916604  0.81946469    -0.74700
O2252       O  0.71243721  0.89183637  0.81907327    -0.74500
C2253       C  0.70234466  0.80568120  0.81234652     0.77300
C2254       C  0.63653347  0.76747534  0.86323257     0.77800
C2255       C  0.73282894  0.86653286  0.86378210     0.76800
C2256       C  0.63221161  0.86296324  0.86585217     0.77200
C2257       C  0.59931313  0.79960343  0.81446294     0.78300
C2258       C  0.69618483  0.90219810  0.81558296     0.77300
Zn2259     Zn  0.79456039  0.64918622  0.33301107     1.49700
Zn2260     Zn  0.85599241  0.70849744  0.33149299     1.49400
Zn2261     Zn  0.83784547  0.66781239  0.36184366     1.49100
Zn2262     Zn  0.85293715  0.64583663  0.33045002     1.49500
O2263       O  0.83543714  0.66798008  0.33888299    -1.83900
O2264       O  0.78689856  0.67639679  0.32013833    -0.74600
O2265       O  0.87203235  0.73663229  0.35027255    -0.74400
O2266       O  0.79969503  0.65259097  0.37223818    -0.73900
O2267       O  0.82877281  0.71755160  0.31848243    -0.74600
O2268       O  0.76820685  0.63698782  0.35240336    -0.74200
O2269       O  0.86259652  0.70674033  0.37054932    -0.74800
O2270       O  0.86494013  0.62761886  0.34813494    -0.74100
O2271       O  0.89104489  0.71532525  0.31836822    -0.74900
O2272       O  0.85377862  0.64384432  0.36966267    -0.74300
O2273       O  0.88899656  0.67264944  0.31806727    -0.74800
O2274       O  0.82440509  0.61305192  0.31632122    -0.74700
O2275       O  0.78352373  0.61401969  0.31947185    -0.74500
C2276       C  0.80181045  0.70235713  0.31526330     0.77300
C2277       C  0.87384838  0.73215346  0.36502757     0.77800
C2278       C  0.77383866  0.64049768  0.36723656     0.76800
C2279       C  0.86369605  0.62911911  0.36322574     0.77200
C2280       C  0.90162041  0.69937684  0.31439409     0.78300
C2281       C  0.79745532  0.60255749  0.31359030     0.77300
C2282       C  0.66839494  0.83687219  0.25098316     0.45700
H2283       H  0.66831870  0.83786141  0.26417875    -0.03400
C2284       C  0.66802495  0.83408503  0.21997940     0.45700
H2285       H  0.66799685  0.83290795  0.20678402    -0.03400
C2286       C  0.68425402  0.82167183  0.24432667    -0.17100
C2287       C  0.63783872  0.82067730  0.24374288    -0.16800
C2288       C  0.68281798  0.86666752  0.24290111    -0.17200
C2289       C  0.68392843  0.82007637  0.22800535    -0.17200
C2290       C  0.63764524  0.81872192  0.22741889    -0.16700
C2291       C  0.68296671  0.86521516  0.22653503    -0.17100
Zn2292     Zn  0.85515361  0.64795740  0.14126932     1.49700
Zn2293     Zn  0.83007265  0.66142497  0.11012058     1.49400
Zn2294     Zn  0.79405129  0.64710480  0.14221347     1.49100
Zn2295     Zn  0.85415845  0.70712927  0.13818904     1.49500
O2296       O  0.83330014  0.66587938  0.13311331    -1.83900
O2297       O  0.86735263  0.63079387  0.12342555    -0.74600
O2298       O  0.78915846  0.64150225  0.10306226    -0.74400
O2299       O  0.78788657  0.61362685  0.15625316    -0.73900
O2300       O  0.84748710  0.63847715  0.10217852    -0.74600
O2301       O  0.83051093  0.61547916  0.15634512    -0.74200
O2302       O  0.76286226  0.63123749  0.12502354    -0.74800
O2303       O  0.82910407  0.71745092  0.15147791    -0.74100
O2304       O  0.84988284  0.69930235  0.09875376    -0.74900
O2305       O  0.78825641  0.67591714  0.15514025    -0.74300
O2306       O  0.86604381  0.73160088  0.11820659    -0.74800
O2307       O  0.89086164  0.71810657  0.15042101    -0.74700
O2308       O  0.89151416  0.67703553  0.15263444    -0.74500
C2309       C  0.86208004  0.62828319  0.10855540     0.77300
C2310       C  0.76474309  0.63081255  0.10991732     0.77800
C2311       C  0.80420147  0.60385055  0.16078922     0.76800
C2312       C  0.80377627  0.70307489  0.15738161     0.77200
C2313       C  0.86309726  0.72538251  0.10344051     0.78300
C2314       C  0.90299940  0.70407232  0.15515787     0.77300
Zn2315     Zn  0.54040497  0.52168939  0.97860539     1.49700
Zn2316     Zn  0.98160578  0.96018897  0.97957601     1.49400
Zn2317     Zn  0.49998873  0.50278205  0.00902204     1.49100
Zn2318     Zn  0.97871762  0.51898471  0.97733626     1.49500
O2319       O  0.50014208  0.50090195  0.98596315    -1.83900
O2320       O  0.54982627  0.99491854  0.96646277    -0.74600
O2321       O  0.96837880  0.93348327  0.99870593    -0.74400
O2322       O  0.53963692  0.52435001  0.01796709    -0.73900
O2323       O  0.50917453  0.95252848  0.96674517    -0.74600
O2324       O  0.56873122  0.53846732  0.99701948    -0.74200
O2325       O  0.98110958  0.96381698  0.01904253    -0.74800
O2326       O  0.96228714  0.53291759  0.99491300    -0.74100
O2327       O  0.94696207  0.94980875  0.96562879    -0.74900
O2328       O  0.97915425  0.52259861  0.01654460    -0.74300
O2329       O  0.94584985  0.99070010  0.96337378    -0.74800
O2330       O  0.50495766  0.55337956  0.96367426    -0.74700
O2331       O  0.54707352  0.55429517  0.96379039    -0.74500
C2332       C  0.53546987  0.96838074  0.96253880     0.77300
C2333       C  0.96971268  0.93826302  0.01362119     0.77800
C2334       C  0.56487469  0.53736028  0.01202564     0.76800
C2335       C  0.96505936  0.53317827  0.00998545     0.77200
C2336       C  0.93579065  0.96413596  0.95993735     0.82700
C2337       C  0.53118635  0.56446960  0.95915315     0.77300
Zn2338     Zn  0.49990163  0.50154436  0.46281773     1.49700
Zn2339     Zn  0.97901770  0.51794609  0.49407584     1.49400
Zn2340     Zn  0.98188628  0.95907315  0.49219852     1.49100
Zn2341     Zn  0.54099986  0.52087294  0.49294433     1.49500
O2342       O  0.50049095  0.49982766  0.48576223    -1.83900
O2343       O  0.98126746  0.52321996  0.45499922    -0.74600
O2344       O  0.94585795  0.98982087  0.50784124    -0.74400
O2345       O  0.96739486  0.93202735  0.47306068    -0.73900
O2346       O  0.96288652  0.53200498  0.47649551    -0.74600
O2347       O  0.97804522  0.96279565  0.45309796    -0.74200
O2348       O  0.94749686  0.94912698  0.50635840    -0.74800
O2349       O  0.54958602  0.99466810  0.50628958    -0.74100
O2350       O  0.50521630  0.55237582  0.50751392    -0.74900
O2351       O  0.50971083  0.95165954  0.50499388    -0.74300
O2352       O  0.54821118  0.55516051  0.50667862    -0.74800
O2353       O  0.56932352  0.53451837  0.47427572    -0.74700
O2354       O  0.53928159  0.51953711  0.45374609    -0.74500
C2355       C  0.96654369  0.53314944  0.46148031     0.77300
C2356       C  0.93591404  0.96340607  0.51157998     0.77800
C2357       C  0.96688567  0.93715071  0.45828345     0.76800
C2358       C  0.53551285  0.96794588  0.50989101     0.77200
C2359       C  0.53177706  0.56461685  0.51150710     0.78300
C2360       C  0.56478033  0.53170676  0.45931567     0.77300
C2361       C  0.73845539  0.61793992  0.09985182    -0.03000
C2362       C  0.71065491  0.60619277  0.10648083    -0.05600
C2363       C  0.68622177  0.59430266  0.09663669    -0.20700
C2364       C  0.68914341  0.59427430  0.08003310     0.25000
C2365       C  0.71692533  0.60568685  0.07344959    -0.18200
C2366       C  0.74122322  0.61742885  0.08323212    -0.08200
C2367       C  0.66288201  0.58123703  0.06990819    -0.18500
C2368       C  0.66292023  0.58964960  0.05477944    -0.23300
C2369       C  0.63729984  0.57621844  0.04414260     0.27100
C2370       C  0.64165604  0.57987500  0.02763253    -0.20100
C2371       C  0.61824624  0.56731834  0.01712668    -0.09700
C2372       C  0.58990572  0.55107664  0.02295960    -0.10200
C2373       C  0.58551015  0.54783852  0.03950369    -0.03200
C2374       C  0.60887255  0.56029866  0.04998301    -0.18300
H2375       H  0.70779081  0.60618465  0.11922950     0.10800
H2376       H  0.66497002  0.58531985  0.10198904     0.10900
H2377       H  0.72004028  0.60507535  0.06077562     0.10500
H2378       H  0.76227359  0.62600994  0.07770082     0.11600
H2379       H  0.64315493  0.56435574  0.07523104     0.11700
H2380       H  0.68280255  0.60684416  0.04971869     0.13600
H2381       H  0.66333158  0.59224511  0.02282312     0.10200
H2382       H  0.62234467  0.57031291  0.00446108     0.12200
H2383       H  0.56391412  0.53559971  0.04442044     0.08900
H2384       H  0.60436575  0.55767483  0.06258808     0.11600
C2385       C  0.87539251  0.74877799  0.09144313    -0.03000
C2386       C  0.86960017  0.74248329  0.07516349    -0.05600
C2387       C  0.88148984  0.76453757  0.06383028    -0.20700
C2388       C  0.89932140  0.79335240  0.06849290     0.25000
C2389       C  0.90550433  0.79958019  0.08477222    -0.18200
C2390       C  0.89350491  0.77755745  0.09610343    -0.08200
C2391       C  0.91173230  0.81607293  0.05602234    -0.18500
C2392       C  0.92119658  0.84417649  0.05899301    -0.23300
C2393       C  0.93401699  0.86752547  0.04687457     0.27100
C2394       C  0.94817815  0.89622019  0.05222847    -0.20100
C2395       C  0.95997109  0.91910704  0.04144652    -0.09700
C2396       C  0.95779452  0.91385661  0.02498299    -0.10200
C2397       C  0.94383219  0.88518139  0.01956929    -0.03200
C2398       C  0.93196243  0.86222657  0.03037347    -0.18300
H2399       H  0.85582942  0.72049126  0.07115401     0.10800
H2400       H  0.87661737  0.75908343  0.05137802     0.10900
H2401       H  0.92006175  0.82126896  0.08887981     0.10500
H2402       H  0.89876188  0.78305542  0.10851473     0.11600
H2403       H  0.91260449  0.80901776  0.04406162     0.11700
H2404       H  0.91958106  0.85076846  0.07096673     0.13600
H2405       H  0.95007685  0.90099181  0.06483713     0.10200
H2406       H  0.97065453  0.94094996  0.04604962     0.12200
H2407       H  0.94173583  0.88044349  0.00696047     0.08900
H2408       H  0.92078700  0.84057727  0.02561849     0.11600
C2409       C  0.87322180  0.61359402  0.09827585    -0.03000
C2410       C  0.89448461  0.60752121  0.10376296    -0.05600
C2411       C  0.90576162  0.59484348  0.09361510    -0.20700
C2412       C  0.89618454  0.58825197  0.07781752     0.25000
C2413       C  0.87426279  0.59348011  0.07249140    -0.18200
C2414       C  0.86301769  0.60613274  0.08260171    -0.08200
C2415       C  0.90930205  0.57570570  0.06728742    -0.18500
C2416       C  0.91171549  0.57983178  0.05141193    -0.23300
C2417       C  0.92599625  0.56833991  0.04089672     0.27100
C2418       C  0.91970552  0.56527598  0.02454716    -0.20100
C2419       C  0.93249491  0.55411279  0.01434532    -0.09700
C2420       C  0.95190877  0.54590824  0.02035134    -0.10200
C2421       C  0.95878423  0.54978225  0.03663019    -0.03200
C2422       C  0.94620143  0.56103843  0.04675391    -0.18300
H2423       H  0.90273938  0.61300277  0.11577842     0.10800
H2424       H  0.92245861  0.59071595  0.09801319     0.10900
H2425       H  0.86556509  0.58763862  0.06059292     0.10500
H2426       H  0.84628616  0.61010605  0.07810137     0.11600
H2427       H  0.91800126  0.56350518  0.07302882     0.11700
H2428       H  0.90293073  0.59209487  0.04579407     0.13600
H2429       H  0.90455024  0.57117990  0.01968967     0.10200
H2430       H  0.92693931  0.55158794  0.00184038     0.12200
H2431       H  0.97410774  0.54422605  0.04161464     0.08900
H2432       H  0.95279917  0.56428708  0.05907471     0.11600
C2433       C  0.93127811  0.71958572  0.16348225    -0.03000
C2434       C  0.94405615  0.74923482  0.16685362    -0.05600
C2435       C  0.97115405  0.76401716  0.17420956    -0.20700
C2436       C  0.98611063  0.74959034  0.17847184     0.25000
C2437       C  0.97336794  0.71991649  0.17502908    -0.18200
C2438       C  0.94626781  0.70512586  0.16767964    -0.08200
C2439       C  0.51525665  0.76645884  0.18591934    -0.18500
C2440       C  0.52800291  0.75444834  0.19441289    -0.23300
C2441       C  0.55689630  0.77124291  0.20211310     0.27100
C2442       C  0.56375781  0.75847546  0.21470313    -0.20100
C2443       C  0.59035699  0.77349507  0.22249328    -0.09700
C2444       C  0.61075102  0.80176928  0.21792082    -0.10200
C2445       C  0.60458304  0.81409469  0.20486357    -0.03200
C2446       C  0.57789929  0.79909092  0.19703584    -0.18300
H2447       H  0.93321398  0.76110146  0.16371585     0.10800
H2448       H  0.98049649  0.78690189  0.17658423     0.10900
H2449       H  0.98443835  0.70806238  0.17760985     0.10500
H2450       H  0.93724168  0.68237522  0.16507035     0.11600
H2451       H  0.52593563  0.78980293  0.18489738     0.11700
H2452       H  0.51623869  0.73136534  0.19663536     0.13600
H2453       H  0.54825706  0.73690166  0.21871465     0.10200
H2454       H  0.59484133  0.76322362  0.23232633     0.12200
H2455       H  0.62006691  0.83567926  0.20096302     0.08900
H2456       H  0.57396043  0.80931849  0.18702365     0.11600
C2457       C  0.79213318  0.57779022  0.17098297    -0.03000
C2458       C  0.81049233  0.57105813  0.17969013    -0.05600
C2459       C  0.79916940  0.54533036  0.18835691    -0.20700
C2460       C  0.76938874  0.52546096  0.18816492     0.25000
C2461       C  0.75090449  0.53260195  0.17986809    -0.18200
C2462       C  0.76217062  0.55854532  0.17142289    -0.08200
C2463       C  0.75832259  0.99760694  0.19675227    -0.18500
C2464       C  0.73504067  0.97296297  0.19178669    -0.23300
C2465       C  0.72331282  0.94456661  0.19997406     0.27100
C2466       C  0.69495022  0.92279366  0.19642485    -0.20100
C2467       C  0.68229200  0.89633706  0.20444917    -0.09700
C2468       C  0.69776251  0.89108752  0.21614899    -0.10200
C2469       C  0.72675223  0.91199333  0.21898140    -0.03200
C2470       C  0.73939452  0.93853511  0.21105256    -0.18300
H2471       H  0.83367958  0.58558663  0.17968626     0.10800
H2472       H  0.81380030  0.54052009  0.19484913     0.10900
H2473       H  0.72772516  0.51824327  0.17990781     0.10500
H2474       H  0.74746446  0.56317518  0.16487345     0.11600
H2475       H  0.77044483  0.99751113  0.20707868     0.11700
H2476       H  0.72356024  0.97355769  0.18125127     0.13600
H2477       H  0.68219094  0.92662738  0.18778649     0.10200
H2478       H  0.65996088  0.88060641  0.20206442     0.12200
H2479       H  0.73924776  0.90812766  0.22776934     0.08900
H2480       H  0.76165830  0.95412499  0.21374716     0.11600
C2481       C  0.79204689  0.71847826  0.16677155    -0.03000
C2482       C  0.80945391  0.74803836  0.17015661    -0.05600
C2483       C  0.79821306  0.76293432  0.17843904    -0.20700
C2484       C  0.76924926  0.74879747  0.18344997     0.25000
C2485       C  0.75191770  0.71903391  0.18036106    -0.18200
C2486       C  0.76320067  0.70409085  0.17208423    -0.08200
C2487       C  0.75843237  0.76585952  0.19214663    -0.18500
C2488       C  0.73019228  0.75762700  0.19380595    -0.23300
C2489       C  0.71952730  0.77499723  0.20234357     0.27100
C2490       C  0.69104778  0.76893809  0.19958205    -0.20100
C2491       C  0.67981206  0.78412439  0.20762949    -0.09700
C2492       C  0.69670106  0.80542664  0.21877863    -0.10200
C2493       C  0.72528731  0.81186226  0.22143368    -0.03200
C2494       C  0.73654253  0.79667764  0.21342907    -0.18300
H2495       H  0.83181107  0.75979949  0.16632014     0.10800
H2496       H  0.81216662  0.78573456  0.18078450     0.10900
H2497       H  0.72976879  0.70702691  0.18443041     0.10500
H2498       H  0.74924528  0.68129310  0.16975885     0.11600
H2499       H  0.77467424  0.78672562  0.19665039     0.11700
H2500       H  0.71401856  0.73791035  0.18814216     0.13600
H2501       H  0.67737220  0.75228762  0.19120224     0.10200
H2502       H  0.65767188  0.77874306  0.20543984     0.12200
H2503       H  0.73888573  0.82852465  0.22980938     0.08900
H2504       H  0.75830908  0.80168466  0.21627704     0.11600
C2505       C  0.69539470  0.89409166  0.25222561    -0.03000
C2506       C  0.71277256  0.89774048  0.26549761    -0.05600
C2507       C  0.72686558  0.92414885  0.27350223    -0.20700
C2508       C  0.72348704  0.94743988  0.26866984     0.25000
C2509       C  0.70510927  0.94350667  0.25573176    -0.18200
C2510       C  0.69096846  0.91698153  0.24772535    -0.08200
C2511       C  0.74046549  0.97554136  0.27708611    -0.18500
C2512       C  0.73377551  0.99676988  0.27711750    -0.23300
C2513       C  0.75084040  0.52423277  0.28609749     0.27100
C2514       C  0.73702163  0.53916985  0.29144721    -0.20100
C2515       C  0.75219995  0.56471731  0.30019952    -0.09700
C2516       C  0.78173739  0.57615614  0.30366386    -0.10200
C2517       C  0.79578969  0.56162634  0.29792316    -0.03200
C2518       C  0.78055783  0.53599318  0.28922838    -0.18300
H2519       H  0.71613338  0.88042973  0.26947264     0.10800
H2520       H  0.74073346  0.92646544  0.28347230     0.10900
H2521       H  0.70214051  0.96095104  0.25146834     0.10500
H2522       H  0.67698873  0.91454954  0.23781190     0.11600
H2523       H  0.75857799  0.97816905  0.28422545     0.11700
H2524       H  0.71420239  0.99336077  0.27124798     0.13600
H2525       H  0.71423594  0.53076714  0.28907952     0.10200
H2526       H  0.74068333  0.57537755  0.30436499     0.12200
H2527       H  0.81854984  0.56992591  0.30025213     0.08900
H2528       H  0.79223189  0.02566316  0.28485919     0.11600
C2529       C  0.92970131  0.71224375  0.30578078    -0.03000
C2530       C  0.94109539  0.69479763  0.30076728    -0.05600
C2531       C  0.96838364  0.70702309  0.29360754    -0.20700
C2532       C  0.98495701  0.73695015  0.29117584     0.25000
C2533       C  0.97351129  0.75444163  0.29611404    -0.18200
C2534       C  0.94619339  0.74220903  0.30327443    -0.08200
C2535       C  0.51440564  0.74914843  0.28405503    -0.18500
C2536       C  0.52817449  0.77496264  0.27666853    -0.23300
C2537       C  0.55715715  0.78706254  0.26907261     0.27100
C2538       C  0.56409553  0.80700645  0.25666860    -0.20100
C2539       C  0.59071350  0.81865335  0.24891618    -0.09700
C2540       C  0.61107913  0.81059956  0.25335374    -0.10200
C2541       C  0.60494610  0.79179326  0.26626816    -0.03200
C2542       C  0.57810954  0.77997290  0.27405026    -0.18300
H2543       H  0.92907989  0.67164816  0.30255749     0.10800
H2544       H  0.97664050  0.69301500  0.29000917     0.10900
H2545       H  0.98583561  0.77767207  0.29492336     0.10500
H2546       H  0.93828753  0.75634041  0.30717405     0.11600
H2547       H  0.52440427  0.73573573  0.28427444     0.11700
H2548       H  0.51705452  0.78714357  0.27513392     0.13600
H2549       H  0.54861822  0.81320813  0.25274491     0.10200
H2550       H  0.59521242  0.83357628  0.23917389     0.12200
H2551       H  0.62051025  0.78557346  0.26998206     0.08900
H2552       H  0.57390208  0.76542969  0.28392948     0.11600
C2553       C  0.69800382  0.80942486  0.25467269    -0.03000
C2554       C  0.72382144  0.82774074  0.26265326    -0.05600
C2555       C  0.73824826  0.81633228  0.27128688    -0.20700
C2556       C  0.72733315  0.78636385  0.27204420     0.25000
C2557       C  0.70098840  0.76799265  0.26423252    -0.18200
C2558       C  0.68661588  0.77948958  0.25557879    -0.08200
C2559       C  0.74422744  0.77556505  0.28108250    -0.18500
C2560       C  0.73949522  0.74830553  0.28027246    -0.23300
C2561       C  0.75647850  0.73766302  0.28926270     0.27100
C2562       C  0.74379487  0.70788716  0.29197015    -0.20100
C2563       C  0.75867439  0.69659641  0.30021711    -0.09700
C2564       C  0.78692166  0.71476079  0.30586843    -0.10200
C2565       C  0.80001621  0.74456437  0.30285121    -0.03200
C2566       C  0.78495979  0.75594181  0.29466972    -0.18300
H2567       H  0.73347931  0.85089350  0.26166863     0.10800
H2568       H  0.75841705  0.83107142  0.27711718     0.10900
H2569       H  0.69119588  0.74479484  0.26470599     0.10500
H2570       H  0.66674223  0.76504098  0.24940808     0.11600
H2571       H  0.76153828  0.79104217  0.28862060     0.11700
H2572       H  0.72205709  0.73253454  0.27295342     0.13600
H2573       H  0.72205314  0.69323188  0.28782031     0.10200
H2574       H  0.74792369  0.67351590  0.30219531     0.12200
H2575       H  0.82178020  0.75914125  0.30696581     0.08900
H2576       H  0.79588546  0.77891430  0.29242564     0.11600
C2577       C  0.75024197  0.63028464  0.37907662    -0.03000
C2578       C  0.75676356  0.63708581  0.39526162    -0.05600
C2579       C  0.73480308  0.62682981  0.40663161    -0.20700
C2580       C  0.70585465  0.60926861  0.40215060     0.25000
C2581       C  0.69919769  0.60305186  0.38589236    -0.18200
C2582       C  0.72120569  0.61340546  0.37448694    -0.08200
C2583       C  0.68339041  0.59830764  0.41477899    -0.18500
C2584       C  0.65720473  0.57471618  0.41298683    -0.23300
C2585       C  0.63442931  0.56390037  0.42538935     0.27100
C2586       C  0.60560324  0.54770715  0.42047129    -0.20100
C2587       C  0.58322692  0.53727429  0.43154157    -0.09700
C2588       C  0.58910790  0.54252500  0.44788983    -0.10200
C2589       C  0.61804362  0.55807917  0.45292897    -0.03200
C2590       C  0.64056073  0.56870690  0.44176866    -0.18300
H2591       H  0.77892871  0.65028540  0.39920369     0.10800
H2592       H  0.74049970  0.63225785  0.41901419     0.10900
H2593       H  0.67708761  0.59052824  0.38182753     0.10500
H2594       H  0.71549864  0.60804019  0.36210792     0.11600
H2595       H  0.68895205  0.60989597  0.42599510     0.11700
H2596       H  0.65160469  0.56304395  0.40180806     0.13600
H2597       H  0.60032775  0.54345364  0.40796449     0.10200
H2598       H  0.56120971  0.52512577  0.42721104     0.12200
H2599       H  0.62325765  0.56214924  0.46544154     0.08900
H2600       H  0.66261523  0.58029228  0.44603564     0.11600
C2601       C  0.95344546  0.91325619  0.44667174    -0.03000
C2602       C  0.94842968  0.91884121  0.43098460    -0.05600
C2603       C  0.93718020  0.89687201  0.41965399    -0.20700
C2604       C  0.93111553  0.86897077  0.42365665     0.25000
C2605       C  0.93514060  0.86304591  0.43948074    -0.18200
C2606       C  0.94620827  0.88502585  0.45088258    -0.08200
C2607       C  0.92042870  0.84668675  0.41102983    -0.18500
C2608       C  0.92464947  0.82391678  0.41133614    -0.23300
C2609       C  0.91327052  0.80135364  0.39890428     0.27100
C2610       C  0.90456203  0.77296930  0.40338167    -0.20100
C2611       C  0.89222941  0.75072172  0.39227220    -0.09700
C2612       C  0.88872517  0.75643418  0.37632663    -0.10200
C2613       C  0.89867147  0.78510391  0.37165633    -0.03200
C2614       C  0.91084061  0.80742355  0.38286713    -0.18300
H2615       H  0.95340997  0.94030952  0.42739334     0.10800
H2616       H  0.93383329  0.90184641  0.40762082     0.10900
H2617       H  0.92961660  0.84149062  0.44315161     0.10500
H2618       H  0.94952655  0.88002752  0.46290654     0.11600
H2619       H  0.90934998  0.84959871  0.40097984     0.11700
H2620       H  0.93565409  0.82082528  0.42134776     0.13600
H2621       H  0.90655593  0.76787218  0.41562260     0.10200
H2622       H  0.88508280  0.72891181  0.39627962     0.12200
H2623       H  0.89659217  0.79020447  0.35944161     0.08900
H2624       H  0.91832864  0.82933474  0.37896361     0.11600
C2625       C  0.95344320  0.54587834  0.45111503    -0.03000
C2626       C  0.93773004  0.55820910  0.45747715    -0.05600
C2627       C  0.92541535  0.56997444  0.44739075    -0.20700
C2628       C  0.92824435  0.56927097  0.43081106     0.25000
C2629       C  0.94434600  0.55732396  0.42449282    -0.18200
C2630       C  0.95667038  0.54568473  0.43452358    -0.08200
C2631       C  0.91510954  0.58208908  0.42046010    -0.18500
C2632       C  0.90736392  0.57388657  0.40524270    -0.23300
C2633       C  0.89523789  0.58738884  0.39463816     0.27100
C2634       C  0.89814370  0.58611842  0.37808843    -0.20100
C2635       C  0.88771161  0.59935772  0.36773449    -0.09700
C2636       C  0.87394748  0.61390935  0.37379068    -0.10200
C2637       C  0.87028045  0.61434672  0.39034620    -0.03200
C2638       C  0.88067261  0.60118803  0.40064021    -0.18300
H2639       H  0.93499943  0.55880798  0.47020239     0.10800
H2640       H  0.91341436  0.57942955  0.45254308     0.10900
H2641       H  0.94803680  0.55739760  0.41184668     0.10500
H2642       H  0.96887446  0.53659591  0.42921076     0.11600
H2643       H  0.91180976  0.59879306  0.42568591     0.11700
H2644       H  0.91062547  0.55709682  0.40009808     0.13600
H2645       H  0.90899663  0.57528911  0.37316940     0.10200
H2646       H  0.89072114  0.59850354  0.35505162     0.12200
H2647       H  0.85935717  0.62496734  0.39543659     0.08900
H2648       H  0.87689909  0.60166323  0.41324015     0.11600
C2649       C  0.54337130  0.58964211  0.94824819    -0.03000
C2650       C  0.52877838  0.60511332  0.94573580    -0.05600
C2651       C  0.54024710  0.62893064  0.93553703    -0.20700
C2652       C  0.56618585  0.63745617  0.92734591     0.25000
C2653       C  0.58086791  0.62204041  0.92980137    -0.18200
C2654       C  0.56962350  0.59844958  0.94021813    -0.08200
C2655       C  0.57784614  0.66327012  0.91692949    -0.18500
C2656       C  0.59383834  0.66675239  0.90384349    -0.23300
C2657       C  0.60449931  0.69260824  0.89349546     0.27100
C2658       C  0.60704171  0.69001540  0.87703712    -0.20100
C2659       C  0.61689862  0.71415136  0.86708335    -0.09700
C2660       C  0.62499016  0.74147362  0.87348417    -0.10200
C2661       C  0.62274702  0.74402487  0.89000007    -0.03200
C2662       C  0.61262783  0.71991712  0.89988264    -0.18300
H2663       H  0.50860536  0.59900952  0.95178739     0.10800
H2664       H  0.52868756  0.64063249  0.93394186     0.10900
H2665       H  0.60129227  0.62851571  0.92395965     0.10500
H2666       H  0.58142841  0.58702524  0.94192941     0.11600
H2667       H  0.57150192  0.67921856  0.91964898     0.11700
H2668       H  0.59775610  0.64954821  0.90008662     0.13600
H2669       H  0.60109138  0.66920695  0.87186308     0.10200
H2670       H  0.61852959  0.71148762  0.85442092     0.12200
H2671       H  0.62894396  0.76475237  0.89535057     0.08900
H2672       H  0.61168855  0.72282371  0.91256662     0.11600
C2673       C  0.91092360  0.94971315  0.94887912    -0.03000
C2674       C  0.89620413  0.91954241  0.94703319    -0.05600
C2675       C  0.87300117  0.90598141  0.93645201    -0.20700
C2676       C  0.86437473  0.92226438  0.92725086     0.25000
C2677       C  0.87905767  0.95244884  0.92905063    -0.18200
C2678       C  0.90200678  0.96600177  0.93980900    -0.08200
C2679       C  0.83891359  0.90701934  0.91664187    -0.18500
C2680       C  0.83574305  0.91853751  0.90307180    -0.23300
C2681       C  0.80938977  0.90377629  0.89302574     0.27100
C2682       C  0.81143443  0.90960150  0.87665567    -0.20100
C2683       C  0.78668183  0.89715182  0.86707612    -0.09700
C2684       C  0.75926792  0.87898475  0.87375222    -0.10200
C2685       C  0.75728463  0.87312249  0.89014119    -0.03200
C2686       C  0.78202853  0.88534902  0.89966869    -0.18300
H2687       H  0.90246763  0.90635137  0.95385724     0.10800
H2688       H  0.86183077  0.88267933  0.93538053     0.10900
H2689       H  0.87244257  0.96556737  0.92244152     0.10500
H2690       H  0.91287102  0.98927372  0.94095485     0.11600
H2691       H  0.82272120  0.88516439  0.91990417     0.11700
H2692       H  0.85327813  0.93914444  0.89895519     0.13600
H2693       H  0.83224226  0.92388774  0.87127549     0.10200
H2694       H  0.78897731  0.90211971  0.85449261     0.12200
H2695       H  0.73652524  0.85928181  0.89567542     0.08900
H2696       H  0.77950551  0.88100526  0.91230987     0.11600
C2697       C  0.54955180  0.95600443  0.95258472    -0.03000
C2698       C  0.57951893  0.97172030  0.94978138    -0.05600
C2699       C  0.59264278  0.96077715  0.93973190    -0.20700
C2700       C  0.57608772  0.93416568  0.93205355     0.25000
C2701       C  0.54621161  0.91807427  0.93512407    -0.18200
C2702       C  0.53311026  0.92886005  0.94532863    -0.08200
C2703       C  0.59077452  0.92349592  0.92128426    -0.18500
C2704       C  0.57759169  0.90628685  0.90870190    -0.23300
C2705       C  0.59234405  0.89578781  0.89783393     0.27100
C2706       C  0.58237846  0.88837692  0.88214259    -0.20100
C2707       C  0.59551264  0.87803983  0.87166165    -0.09700
C2708       C  0.61855438  0.87437202  0.87678295    -0.10200
C2709       C  0.62827269  0.88140796  0.89254583    -0.03200
C2710       C  0.61537279  0.89204677  0.90295838    -0.18300
H2711       H  0.59284749  0.99259010  0.95528370     0.10800
H2712       H  0.61575370  0.97340094  0.93771576     0.10900
H2713       H  0.53295945  0.89704595  0.92979577     0.10500
H2714       H  0.51001602  0.91612798  0.94732902     0.11600
H2715       H  0.61363177  0.93150554  0.92329385     0.11700
H2716       H  0.55559401  0.90074809  0.90576920     0.13600
H2717       H  0.56446822  0.89076181  0.87795229     0.10200
H2718       H  0.58738403  0.87255172  0.85961775     0.12200
H2719       H  0.64593576  0.87873047  0.89684575     0.08900
H2720       H  0.62310097  0.89668730  0.91508691     0.11600
C2721       C  0.88983265  0.68871643  0.75416078    -0.03000
C2722       C  0.90837343  0.67792424  0.75055255    -0.05600
C2723       C  0.93477214  0.68848196  0.75843429    -0.20700
C2724       C  0.94317765  0.71003352  0.77006968     0.25000
C2725       C  0.92383265  0.71974521  0.77423803    -0.18200
C2726       C  0.89734289  0.70909225  0.76634091    -0.08200
C2727       C  0.97208072  0.72152855  0.77762321    -0.18500
C2728       C  0.98659033  0.74789848  0.78433782    -0.23300
C2729       C  0.51598448  0.76031102  0.79143785     0.27100
C2730       C  0.53169673  0.79016480  0.79420342    -0.20100
C2731       C  0.55897931  0.80290702  0.80128429    -0.09700
C2732       C  0.57130502  0.78608387  0.80585403    -0.10200
C2733       C  0.55573246  0.75618590  0.80301361    -0.03200
C2734       C  0.52830692  0.74337909  0.79595313    -0.18300
H2735       H  0.90265743  0.66175118  0.74136704     0.10800
H2736       H  0.94897428  0.68026258  0.75516544     0.10900
H2737       H  0.92897222  0.73549803  0.78357029     0.10500
H2738       H  0.88311803  0.71739421  0.76938845     0.11600
H2739       H  0.98232221  0.70843933  0.77664581     0.11700
H2740       H  0.97719454  0.76182217  0.78400521     0.13600
H2741       H  0.52275122  0.80374155  0.79094543     0.10200
H2742       H  0.57026944  0.82598560  0.80335307     0.12200
H2743       H  0.56442138  0.74255613  0.80660161     0.08900
H2744       H  0.51670946  0.72020438  0.79447594     0.11600
C2745       C  0.80602443  0.60927327  0.75347668    -0.03000
C2746       C  0.81663675  0.59041928  0.75046689    -0.05600
C2747       C  0.80562750  0.56438130  0.75875774    -0.20700
C2748       C  0.78368186  0.55660022  0.77013137     0.25000
C2749       C  0.77380439  0.57604949  0.77352668    -0.18200
C2750       C  0.78494974  0.60216739  0.76525676    -0.08200
C2751       C  0.77205781  0.52829559  0.77830701    -0.18500
C2752       C  0.74542894  0.51397643  0.78481223    -0.23300
C2753       C  0.73339491  0.98513359  0.79246355     0.27100
C2754       C  0.70327877  0.96790706  0.79410467    -0.20100
C2755       C  0.69108672  0.94081709  0.80141598    -0.09700
C2756       C  0.70880936  0.93034832  0.80725457    -0.10200
C2757       C  0.73895600  0.94763525  0.80568106    -0.03200
C2758       C  0.75114056  0.97478293  0.79849355    -0.18300
H2759       H  0.83321594  0.59574916  0.74155236     0.10800
H2760       H  0.81392368  0.55001939  0.75607025     0.10900
H2761       H  0.75764269  0.57131975  0.78258431     0.10500
H2762       H  0.77652799  0.61641795  0.76776754     0.11600
H2763       H  0.78535583  0.51820089  0.77798292     0.11700
H2764       H  0.73114140  0.52289853  0.78378650     0.13600
H2765       H  0.68910508  0.97542661  0.78968856     0.10200
H2766       H  0.66778567  0.92811315  0.80252728     0.12200
H2767       H  0.75325501  0.94043807  0.81030335     0.08900
H2768       H  0.77445030  0.98770835  0.79802688     0.11600
C2769       C  0.80832166  0.69842377  0.75531086    -0.03000
C2770       C  0.78941036  0.68381020  0.76789559    -0.05600
C2771       C  0.77593743  0.69656407  0.77621864    -0.20700
C2772       C  0.78121903  0.72435197  0.77225004     0.25000
C2773       C  0.80149477  0.73962543  0.76015672    -0.18200
C2774       C  0.81506996  0.72687309  0.75193301    -0.08200
C2775       C  0.76450174  0.73585154  0.78079979    -0.18500
C2776       C  0.76698468  0.76191408  0.77814455    -0.23300
C2777       C  0.74956500  0.77241242  0.78672474     0.27100
C2778       C  0.76074902  0.80227805  0.78826535    -0.20100
C2779       C  0.74523782  0.81309024  0.79634336    -0.09700
C2780       C  0.71788751  0.79424209  0.80286188    -0.10200
C2781       C  0.70628941  0.76433805  0.80093481    -0.03200
C2782       C  0.72192435  0.75351394  0.79295740    -0.18300
H2783       H  0.78411676  0.66207830  0.77091142     0.10800
H2784       H  0.76074294  0.68432484  0.78556270     0.10900
H2785       H  0.80680179  0.76116079  0.75669314     0.10500
H2786       H  0.83026840  0.73897791  0.74256967     0.11600
H2787       H  0.74940537  0.72198298  0.78982297     0.11700
H2788       H  0.78292765  0.77684419  0.76983331     0.13600
H2789       H  0.78181270  0.81732312  0.78341743     0.10200
H2790       H  0.75478916  0.83625727  0.79756939     0.12200
H2791       H  0.68527563  0.74923705  0.80579933     0.08900
H2792       H  0.71210703  0.73039100  0.79155475     0.11600
C2793       C  0.57463485  0.78841672  0.66917104    -0.03000
C2794       C  0.57573157  0.79099705  0.68583937    -0.05600
C2795       C  0.55015810  0.77958671  0.69477223    -0.20700
C2796       C  0.52302141  0.76526450  0.68726344     0.25000
C2797       C  0.52203145  0.76319686  0.67057412    -0.18200
C2798       C  0.54746219  0.77443690  0.66168919    -0.08200
C2799       C  0.99621972  0.75352430  0.69705274    -0.18500
C2800       C  0.97036735  0.73206549  0.69199851    -0.23300
C2801       C  0.94322309  0.71995595  0.70144837     0.27100
C2802       C  0.92059535  0.69221349  0.69767880    -0.20100
C2803       C  0.89467741  0.67982352  0.70621959    -0.09700
C2804       C  0.89058587  0.69506036  0.71853778    -0.10200
C2805       C  0.91284070  0.72316882  0.72206046    -0.03200
C2806       C  0.93897477  0.73550370  0.71365737    -0.18300
H2807       H  0.59630337  0.80187916  0.69197227     0.10800
H2808       H  0.55157026  0.78181982  0.70759894     0.10900
H2809       H  0.50171933  0.75344119  0.66421918     0.10500
H2810       H  0.54575400  0.77241869  0.64886827     0.11600
H2811       H  0.99824095  0.76204350  0.70899250     0.11700
H2812       H  0.96903976  0.72172726  0.68067725     0.13600
H2813       H  0.92319668  0.67980540  0.68828370     0.10200
H2814       H  0.87832826  0.65797018  0.70354666     0.12200
H2815       H  0.91003249  0.73550887  0.73141325     0.08900
H2816       H  0.95548991  0.75726223  0.71661047     0.11600
C2817       C  0.70929553  0.92776494  0.66682379    -0.03000
C2818       C  0.70729110  0.92757786  0.68347529    -0.05600
C2819       C  0.71889933  0.95351645  0.69195607    -0.20700
C2820       C  0.73280311  0.98024657  0.68404392     0.25000
C2821       C  0.73435904  0.98038009  0.66731651    -0.18200
C2822       C  0.72280813  0.95446615  0.65885332    -0.08200
C2823       C  0.74475707  0.50715963  0.69374089    -0.18500
C2824       C  0.76232514  0.53397004  0.68804925    -0.23300
C2825       C  0.77468207  0.56036741  0.69812256     0.27100
C2826       C  0.80010013  0.58492731  0.69308544    -0.20100
C2827       C  0.81310275  0.60982473  0.70245775    -0.09700
C2828       C  0.80113581  0.61081552  0.71716320    -0.10200
C2829       C  0.77452211  0.58689860  0.72165285    -0.03200
C2830       C  0.76155461  0.56187307  0.71233685    -0.18300
H2831       H  0.69674809  0.90739608  0.68996947     0.10800
H2832       H  0.71708537  0.95266929  0.70480474     0.10900
H2833       H  0.74408323  0.00021589  0.66057722     0.10500
H2834       H  0.72448870  0.95541024  0.64600414     0.11600
H2835       H  0.73963334  0.50446057  0.70633243     0.11700
H2836       H  0.76949831  0.53692099  0.67579125     0.13600
H2837       H  0.81028586  0.58469336  0.68198003     0.10200
H2838       H  0.83277409  0.62801546  0.69820114     0.12200
H2839       H  0.76356603  0.58748225  0.73234874     0.08900
H2840       H  0.74111813  0.54401947  0.71622848     0.11600
C2841       C  0.71348347  0.78817627  0.66906987    -0.03000
C2842       C  0.71407409  0.78968169  0.68576874    -0.05600
C2843       C  0.72605087  0.77603768  0.69467824    -0.20700
C2844       C  0.73782858  0.76077531  0.68710479     0.25000
C2845       C  0.73696416  0.75904051  0.67041295    -0.18200
C2846       C  0.72507162  0.77265998  0.66153322    -0.08200
C2847       C  0.74973441  0.74594143  0.69692047    -0.18500
C2848       C  0.76988867  0.73981206  0.69152134    -0.23300
C2849       C  0.78179887  0.72487980  0.70119711     0.27100
C2850       C  0.80949593  0.72946265  0.69760278    -0.20100
C2851       C  0.82153236  0.71591883  0.70645919    -0.09700
C2852       C  0.80599400  0.69737986  0.71901444    -0.10200
C2853       C  0.77782630  0.69180743  0.72223438    -0.03200
C2854       C  0.76586358  0.70553286  0.71347915    -0.18300
H2855       H  0.70522562  0.80132771  0.69196092     0.10800
H2856       H  0.72619988  0.77747621  0.70752629     0.10900
H2857       H  0.74484636  0.74666772  0.66412794     0.10500
H2858       H  0.72468454  0.77070987  0.64870889     0.11600
H2859       H  0.74249815  0.74105902  0.70917546     0.11700
H2860       H  0.77923944  0.74728112  0.67981735     0.13600
H2861       H  0.82204422  0.74393089  0.68805451     0.10200
H2862       H  0.84320650  0.72033336  0.70370148     0.12200
H2863       H  0.76511187  0.67687292  0.73157850     0.08900
H2864       H  0.74403786  0.70058020  0.71619126     0.11600
C2865       C  0.62526017  0.74237163  0.59740726    -0.03000
C2866       C  0.64225831  0.72973050  0.59385066    -0.05600
C2867       C  0.63177268  0.70572085  0.58382181    -0.20700
C2868       C  0.60426963  0.69400940  0.57689767     0.25000
C2869       C  0.58705286  0.70640821  0.58060842    -0.18200
C2870       C  0.59748895  0.73035626  0.59071744    -0.08200
C2871       C  0.59427692  0.66867507  0.56612599    -0.18500
C2872       C  0.57385866  0.66175565  0.55487534    -0.23300
C2873       C  0.56400232  0.63685174  0.54380099     0.27100
C2874       C  0.53723704  0.62653066  0.53618335    -0.20100
C2875       C  0.52697967  0.60333919  0.52559849    -0.09700
C2876       C  0.54342063  0.59003452  0.52221985    -0.10200
C2877       C  0.57055211  0.60073975  0.52954043    -0.03200
C2878       C  0.58074677  0.62386797  0.54023888    -0.18300
H2879       H  0.66369798  0.73833825  0.59885193     0.10800
H2880       H  0.64538384  0.69646234  0.58130542     0.10900
H2881       H  0.56536202  0.69751109  0.57598335     0.10500
H2882       H  0.58378474  0.73947344  0.59327421     0.11600
H2883       H  0.60476576  0.65584429  0.56736553     0.11700
H2884       H  0.56355663  0.67475828  0.55363558     0.13600
H2885       H  0.52402418  0.63628966  0.53855082     0.10200
H2886       H  0.00607845  0.59578838  0.52009002     0.12200
H2887       H  0.58380048  0.59105985  0.52712906     0.08900
H2888       H  0.60189448  0.63167114  0.54543307     0.11600
C2889       C  0.75698463  0.88118012  0.59691691    -0.03000
C2890       C  0.76824800  0.90989334  0.59188821    -0.05600
C2891       C  0.79160195  0.92245607  0.58136361    -0.20700
C2892       C  0.80415460  0.90663671  0.57548959     0.25000
C2893       C  0.79319931  0.87799860  0.58070831    -0.18200
C2894       C  0.76985022  0.86543143  0.59129345    -0.08200
C2895       C  0.82904760  0.92125987  0.56435042    -0.18500
C2896       C  0.83780918  0.90726709  0.55443815    -0.23300
C2897       C  0.86268711  0.92223381  0.54328553     0.27100
C2898       C  0.87573990  0.90694683  0.53729836    -0.20100
C2899       C  0.89938781  0.92019687  0.52695803    -0.09700
C2900       C  0.91045808  0.94908067  0.52227859    -0.10200
C2901       C  0.89700036  0.96421179  0.52797159    -0.03200
C2902       C  0.87331324  0.95094030  0.53827082    -0.18300
H2903       H  0.75894548  0.92269519  0.59602286     0.10800
H2904       H  0.79973114  0.94460451  0.57766716     0.10900
H2905       H  0.80273857  0.86526975  0.57689536     0.10500
H2906       H  0.76180270  0.84332529  0.59501073     0.11600
H2907       H  0.84025708  0.94465101  0.56430116     0.11700
H2908       H  0.82671615  0.88386862  0.55452791     0.13600
H2909       H  0.86782137  0.88473049  0.54078522     0.10200
H2910       H  0.90909159  0.90783023  0.52271398     0.12200
H2911       H  0.90472211  0.98635922  0.52444686     0.08900
H2912       H  0.86330528  0.96325401  0.54203177     0.11600
C2913       C  0.61646427  0.87333552  0.59668644    -0.03000
C2914       C  0.58760660  0.85545733  0.59194340    -0.05600
C2915       C  0.57454415  0.86550338  0.58127991    -0.20700
C2916       C  0.59005630  0.89348770  0.57498768     0.25000
C2917       C  0.61868974  0.91172498  0.58006954    -0.18200
C2918       C  0.63174975  0.90171225  0.59078268    -0.08200
C2919       C  0.57537373  0.90303825  0.56350476    -0.18500
C2920       C  0.58965475  0.92367910  0.55249790    -0.23300
C2921       C  0.57520926  0.93386037  0.54120579     0.27100
C2922       C  0.59154466  0.96145783  0.53452625    -0.20100
C2923       C  0.57876196  0.97239825  0.52424274    -0.09700
C2924       C  0.54934351  0.95577989  0.52021806    -0.10200
C2925       C  0.53317139  0.92775262  0.52648706    -0.03200
C2926       C  0.54593392  0.91686955  0.53685880    -0.18300
H2927       H  0.57514229  0.83355868  0.59634709     0.10800
H2928       H  0.55234989  0.85117303  0.57772401     0.10900
H2929       H  0.63100008  0.93381680  0.57597819     0.10500
H2930       H  0.65389182  0.91616956  0.59435896     0.11600
H2931       H  0.55196967  0.89224570  0.56410517     0.11700
H2932       H  0.61306801  0.93427158  0.55192053     0.13600
H2933       H  0.61420520  0.97486055  0.53751581     0.10200
H2934       H  0.59191834  0.99397837  0.51953048     0.12200
H2935       H  0.51052481  0.91430278  0.52352599     0.08900
H2936       H  0.53280550  0.89510409  0.54127284     0.11600
loop_ 
_geom_bond_atom_site_label_1 
_geom_bond_atom_site_label_2 
_geom_bond_distance 
_geom_bond_site_symmetry_2 
_ccdc_geom_bond_type 
Zn1           O5   1.956       .  S
Zn1           O6   2.011       .  S
Zn1          O10   1.999       .  S
Zn1          O17   2.011       .  S
Zn2           O5   1.955       .  S
Zn2           O7   2.005       .  S
Zn2           O9   2.019       .  S
Zn2          O13   2.012       .  S
Zn3           O5   1.976       .  S
Zn3           O8   2.038       .  S
Zn3          O11   2.046       .  S
Zn3          O14   2.037       .  S
Zn4           O5   1.956       .  S
Zn4          O12   2.007       .  S
Zn4          O15   2.026       .  S
Zn4          O16   2.013       .  S
O6           C18   1.273       .  A
O7           C19   1.274       .  A
O8           C20   1.277       .  A
O9           C18   1.274       .  A
O10          C20   1.272       .  A
O11          C19   1.278       .  A
O12          C21   1.274       .  A
O13          C22   1.273       .  A
O14          C21   1.276       .  A
O15          C22   1.275       .  A
O16          C23   1.273       .  A
O17          C23   1.272       .  A
C18         C687   1.482       .  S
C19         C639   1.486       .  S
C20         C615   1.483       .  S
C21         C591   1.485       .  S
C22         C663   1.484       .  S
C23         C711   1.481       .  S
C24          H25   1.110       .  S
C24          C30   1.535       .  S
C24          C29   1.538       .  S
C24          C28   1.542       .  S
C26          H27   1.111       .  S
C26          C32   1.537       .  S
C26          C31   1.539       .  S
C26          C33   1.541       .  S
C28          C31   1.380       .  D
C28         C626   1.498       .  S
C29          C32   1.373       .  D
C29         C602   1.488       .  S
C30          C33   1.377       .  D
C30         C650   1.484       .  S
C31         C543   1.482       .  S
C32         C519   1.482       .  S
C33         C567   1.491       .  S
Zn34         O38   1.956       .  S
Zn34         O39   2.012       .  S
Zn34         O43   2.018       .  S
Zn34         O50   2.014       .  S
Zn35         O38   1.971       .  S
Zn35         O40   2.031       .  S
Zn35         O42   2.032       .  S
Zn35         O46   2.039       .  S
Zn36         O38   1.954       .  S
Zn36         O41   2.016       .  S
Zn36         O44   2.004       .  S
Zn36         O47   2.011       .  S
Zn37         O38   1.959       .  S
Zn37         O45   2.018       .  S
Zn37         O48   2.004       .  S
Zn37         O49   2.022       .  S
O39          C51   1.274       .  A
O40          C52   1.275       .  A
O41          C53   1.273       .  A
O42          C51   1.276       .  A
O43          C53   1.273       .  A
O44          C52   1.273       .  A
O45          C54   1.273       .  A
O46          C55   1.277       .  A
O47          C54   1.273       .  A
O48          C55   1.273       .  A
O49          C56   1.274       .  A
O50          C56   1.274       .  A
C51         C578   1.484       .  S
C52         C458   1.483       .  S
C53         C482   1.483       .  S
C54         C506   1.479       .  S
C55         C530   1.484       .  S
C56         C554   1.482       .  S
Zn57         O61   1.956       .  S
Zn57         O62   2.011       .  S
Zn57         O66   2.036       .  S
Zn57         O73   2.017       .  S
Zn58         O61   1.977       .  S
Zn58         O63   2.050       .  S
Zn58         O65   2.059       .  S
Zn58         O69   2.041       .  S
Zn59         O61   1.935       .  S
Zn59         O64   1.979       .  S
Zn59         O67   1.967       .  S
Zn59         O70   1.970       .  S
Zn60         O61   1.968       .  S
Zn60         O68   2.047       .  S
Zn60         O71   2.022       .  S
Zn60         O72   2.034       .  S
O62          C74   1.275       .  A
O63          C75   1.276       .  A
O64          C76   1.268       .  A
O65          C74   1.279       .  A
O66          C76   1.275       .  A
O67          C75   1.268       .  A
O68          C77   1.275       .  A
O69          C78   1.279       .  A
O70          C77   1.267       .  A
O71          C78   1.276       .  A
O72          C79   1.277       .  A
O73          C79   1.275       .  A
C74         C362   1.490       .  S
C75         C410   1.480       .  S
C76         C375   1.479       .  S
C77         C434   1.481       .  S
C78         C327   1.488       .  S
C79         C314   1.487       .  S
C80          H81   1.111       .  S
C80          C86   1.538       .  S
C80          C85   1.540       .  S
C80          C84   1.540       .  S
C82          H83   1.111       .  S
C82          C88   1.538       .  S
C82          C87   1.539       .  S
C82          C89   1.544       .  S
C84          C87   1.375       .  D
C84         C351   1.484       .  S
C85          C88   1.376       .  D
C85         C338   1.488       .  S
C86          C89   1.379       .  D
C86         C303   1.494       .  S
C87         C290   1.486       .  S
C88         C242   1.491       .  S
C89         C266   1.486       .  S
Zn90         O94   1.965       .  S
Zn90         O95   2.027       .  S
Zn90         O99   2.018       .  S
Zn90        O106   2.021       .  S
Zn91         O94   1.945       .  S
Zn91         O96   1.983       .  S
Zn91         O98   1.986       .  S
Zn91        O102   1.998       .  S
Zn92         O94   1.970       .  S
Zn92         O97   2.029       .  S
Zn92        O100   2.042       .  S
Zn92        O103   2.030       .  S
Zn93         O94   1.958       .  S
Zn93        O101   2.018       .  S
Zn93        O104   2.027       .  S
Zn93        O105   2.023       .  S
O95         C107   1.274       .  A
O96         C108   1.270       .  A
O97         C109   1.276       .  A
O98         C107   1.270       .  A
O99         C109   1.275       .  A
O100        C108   1.275       .  A
O101        C110   1.275       .  A
O102        C111   1.271       .  A
O103        C110   1.276       .  A
O104        C111   1.275       .  A
O105        C112   1.275       .  A
O106        C112   1.275       .  A
C107        C207   1.477       .  S
C108        C159   1.482       .  S
C109        C255   1.481       .  S
C110        C279   1.485       .  S
C111        C183   1.481       .  S
C112        C231   1.485       .  S
Zn113       O117   1.962       .  S
Zn113       O122   2.034       .  S
Zn113       O129   2.024       .  S
Zn113       O852   2.014   1_545  S
Zn114      O2319   1.963       .  S
Zn114       O119   2.029       .  S
Zn114       O125   2.019       .  S
Zn114      O1589   2.023       .  S
Zn115       O117   1.942   1_654  S
Zn115       O120   1.985   1_655  S
Zn115      O2325   1.992   1_545  S
Zn115      O1594   1.982       .  S
Zn116      O1585   1.967       .  S
Zn116       O124   2.038       .  S
Zn116       O861   2.024   1_545  S
Zn116      O1596   2.022       .  S
O117      Zn2316   1.963   1_445  S
O117      Zn1584   1.967   1_455  S
O118       Zn847   2.014       .  S
O118        C130   1.274       .  A
O119        C131   1.275   1_556  A
O120        C132   1.269       .  A
O121      Zn1582   2.023   1_455  S
O121        C130   1.275       .  A
O122        C132   1.275   1_556  A
O123      Zn2317   1.992       .  S
O123        C131   1.270       .  A
O124        C133   1.275   1_556  A
O125        C134   1.275       .  A
O126      Zn1583   1.982       .  S
O126        C133   1.270       .  A
O127       Zn850   2.024       .  S
O127        C134   1.275       .  A
O128      Zn1584   2.023   1_455  S
O128        C135   1.275       .  A
O129        C135   1.275       .  A
C130        C495   1.482       .  S
C131        C194   1.480       .  S
C132        C170   1.480       .  S
C133        C218   1.479       .  S
C134        C471   1.483       .  S
C135        C447   1.483       .  S
Zn136       O140   1.932   1_645  S
Zn136       O152   1.976   1_655  S
Zn136      O1609   1.977       .  S
Zn136      O2347   1.977   1_545  S
Zn137      O1608   1.960   1_545  S
Zn137       O144   2.034       .  S
Zn137       O876   2.019   1_545  S
Zn137      O1616   2.013       .  S
Zn138      O2342   1.966       .  S
Zn138       O143   2.040       .  S
Zn138       O146   2.023       .  S
Zn138      O1617   2.026       .  S
Zn139       O140   1.969   1_545  S
Zn139       O150   2.033       .  S
Zn139       O151   2.044       .  S
Zn139       O881   2.017   1_545  S
O140      Zn1605   1.960   1_465  S
O140      Zn2340   1.966   1_455  S
O141      Zn1604   1.977       .  S
O141        C153   1.269       .  A
O142       Zn871   2.019       .  S
O142        C154   1.275       .  A
O143        C155   1.276       .  A
O144        C153   1.274       .  A
O145      Zn2338   1.976       .  S
O145        C155   1.268       .  A
O146        C154   1.275       .  A
O147       Zn873   2.017       .  S
O147        C156   1.275       .  A
O148      Zn1605   2.013   1_455  S
O148        C157   1.275       .  A
O149      Zn1606   2.026   1_455  S
O149        C156   1.276       .  A
O150        C157   1.277       .  A
O151        C158   1.276       .  A
O152        C158   1.269       .  A
C153        C423   1.478       .  S
C154        C698   1.484       .  S
C155        C399   1.478       .  S
C156        C722   1.483       .  S
C157        C674   1.483       .  S
C158        C386   1.481       .  S
C159        C160   1.405       .  A
C159        C164   1.407       .  A
C160        C161   1.401       .  A
C160        H173   1.083       .  S
C161        C162   1.405       .  A
C161        H174   1.084       .  S
C162        C165   1.483       .  S
C162        C163   1.405       .  A
C163        C164   1.393       .  A
C163        H175   1.081       .  S
C164        H176   1.083       .  S
C165        C166   1.349       .  D
C165        H177   1.084       .  S
C166        C167   1.485       .  S
C166        H178   1.085       .  S
C167        C168   1.405       .  A
C167        C172   1.406       .  A
C168        C169   1.398       .  A
C168        H179   1.084       .  S
C169        C170   1.404       .  A
C169        H180   1.083       .  S
C170        C171   1.407       .  A
C171        C172   1.395       .  A
C171        H181   1.084       .  S
C172        H182   1.080       .  S
C183        C184   1.407       .  A
C183        C188   1.404       .  A
C184        C185   1.398       .  A
C184        H197   1.083       .  S
C185        C186   1.403       .  A
C185        H198   1.083       .  S
C186        C189   1.487       .  S
C186        C187   1.409       .  A
C187        C188   1.397       .  A
C187        H199   1.081       .  S
C188        H200   1.083       .  S
C189        C190   1.348       .  D
C189        H201   1.083       .  S
C190        C191   1.487       .  S
C190        H202   1.084       .  S
C191        C192   1.403       .  A
C191        C196   1.409       .  A
C192        C193   1.395       .  A
C192        H203   1.083       .  S
C193        C194   1.406       .  A
C193        H204   1.083       .  S
C194        C195   1.404       .  A
C195        C196   1.399       .  A
C195        H205   1.083       .  S
C196        H206   1.080       .  S
C207        C208   1.404       .  A
C207        C212   1.406       .  A
C208        C209   1.398       .  A
C208        H221   1.083       .  S
C209        C210   1.404       .  A
C209        H222   1.084       .  S
C210        C213   1.480       .  S
C210        C211   1.404       .  A
C211        C212   1.394       .  A
C211        H223   1.081       .  S
C212        H224   1.084       .  S
C213        C214   1.349       .  D
C213        H225   1.084       .  S
C214        C215   1.485       .  S
C214        H226   1.086       .  S
C215        C216   1.405       .  A
C215        C220   1.406       .  A
C216        C217   1.401       .  A
C216        H227   1.084       .  S
C217        C218   1.405       .  A
C217        H228   1.083       .  S
C218        C219   1.406       .  A
C219        C220   1.392       .  A
C219        H229   1.084       .  S
C220        H230   1.080       .  S
C231        C232   1.406       .  A
C231        C236   1.406       .  A
C232        C233   1.399       .  A
C232        H245   1.083       .  S
C233        C234   1.404       .  A
C233        H246   1.084       .  S
C234       C1705   1.492       .  S
C234        C235   1.409       .  A
C235        C236   1.399       .  A
C235        H247   1.082       .  S
C236        H248   1.083       .  S
C237        C238   1.349       .  D
C237       C1702   1.492   1_455  S
C237        H249   1.086       .  S
C238        C239   1.491       .  S
C238        H250   1.085       .  S
C239        C240   1.403       .  A
C239        C244   1.410       .  A
C240        C241   1.397       .  A
C240        H251   1.084       .  S
C241        C242   1.405       .  A
C241        H252   1.083       .  S
C242        C243   1.401       .  A
C243        C244   1.402       .  A
C243        H253   1.082       .  S
C244        H254   1.080       .  S
C255        C256   1.406       .  A
C255        C260   1.405       .  A
C256        C257   1.399       .  A
C256        H269   1.084       .  S
C257        C258   1.403       .  A
C257        H270   1.083       .  S
C258        C995   1.486   1_545  S
C258        C259   1.407       .  A
C259        C260   1.399       .  A
C259        H271   1.082       .  S
C260        H272   1.083       .  S
C261        C262   1.349       .  D
C261        C992   1.486       .  S
C261        H273   1.084       .  S
C262        C263   1.490       .  S
C262        H274   1.087       .  S
C263        C264   1.406       .  A
C263        C268   1.409       .  A
C264        C265   1.399       .  A
C264        H275   1.083       .  S
C265        C266   1.400       .  A
C265        H276   1.081       .  S
C266        C267   1.405       .  A
C267        C268   1.399       .  A
C267        H277   1.082       .  S
C268        H278   1.081       .  S
C279        C280   1.406       .  A
C279        C284   1.406       .  A
C280        C281   1.397       .  A
C280        H293   1.083       .  S
C281        C282   1.404       .  A
C281        H294   1.083       .  S
C282        C285   1.491       .  S
C282        C283   1.409       .  A
C283        C284   1.401       .  A
C283        H295   1.081       .  S
C284        H296   1.083       .  S
C285        C286   1.350       .  D
C285        H297   1.084       .  S
C286        C287   1.492       .  S
C286        H298   1.084       .  S
C287        C288   1.406       .  A
C287        C292   1.409       .  A
C288        C289   1.400       .  A
C288        H299   1.083       .  S
C289        C290   1.401       .  A
C289        H300   1.083       .  S
C290        C291   1.404       .  A
C291        C292   1.399       .  A
C291        H301   1.082       .  S
C292        H302   1.081       .  S
C303        C304   1.401       .  A
C303        C308   1.408       .  A
C304        C305   1.397       .  A
C304        H317   1.079       .  S
C305        C306   1.404       .  A
C305        H318   1.084       .  S
C306        C309   1.490       .  S
C306        C307   1.409       .  A
C307        C308   1.402       .  A
C307        H319   1.081       .  S
C308        H320   1.083       .  S
C309        C310   1.348       .  D
C309        H321   1.086       .  S
C310       C1045   1.490       .  S
C310        H322   1.085       .  S
C311       C1044   1.490   1_545  S
C311        C312   1.403       .  A
C311        C316   1.409       .  A
C312        C313   1.400       .  A
C312        H323   1.084       .  S
C313        C314   1.408       .  A
C313        H324   1.083       .  S
C314        C315   1.406       .  A
C315        C316   1.400       .  A
C315        H325   1.083       .  S
C316       H1060   1.081       .  S
H326       C1050   1.081       .  S
C327        C328   1.407       .  A
C327        C332   1.406       .  A
C328        C329   1.400       .  A
C328        H341   1.083       .  S
C329        C330   1.404       .  A
C329        H342   1.084       .  S
C330       C1801   1.493       .  S
C330        C331   1.410       .  A
C331        C332   1.401       .  A
C331        H343   1.081       .  S
C332        H344   1.083       .  S
C333        C334   1.348       .  D
C333       C1798   1.493   1_455  S
C333        H345   1.086       .  S
C334        C335   1.489       .  S
C334        H346   1.085       .  S
C335        C336   1.403       .  A
C335        C340   1.411       .  A
C336        C337   1.395       .  A
C336        H347   1.083       .  S
C337        C338   1.404       .  A
C337        H348   1.083       .  S
C338        C339   1.403       .  A
C339        C340   1.405       .  A
C339        H349   1.083       .  S
C340        H350   1.082       .  S
C351        C352   1.401       .  A
C351        C356   1.402       .  A
C352        C353   1.400       .  A
C352        H365   1.080       .  S
C353        C354   1.406       .  A
C353        H366   1.083       .  S
C354        C357   1.497       .  S
C354        C355   1.413       .  A
C355        C356   1.402       .  A
C355        H367   1.079       .  S
C356        H368   1.083       .  S
C357        C358   1.350       .  D
C357        H369   1.085       .  S
C358        C359   1.493       .  S
C358        H370   1.083       .  S
C359        C360   1.403       .  A
C359        C364   1.411       .  A
C360        C361   1.397       .  A
C360        H371   1.084       .  S
C361        C362   1.407       .  A
C361        H372   1.083       .  S
C362        C363   1.407       .  A
C363        C364   1.405       .  A
C363        H373   1.083       .  S
C364        H374   1.081       .  S
C375        C376   1.407       .  A
C375        C380   1.403       .  A
C376        C377   1.395       .  A
C376        H389   1.084       .  S
C377        C378   1.401       .  A
C377        H390   1.083       .  S
C378        C381   1.485       .  S
C378        C379   1.410       .  A
C379        C380   1.398       .  A
C379        H391   1.081       .  S
C380        H392   1.082       .  S
C381        C382   1.344       .  D
C381        H393   1.085       .  S
C382        C383   1.482       .  S
C382        H394   1.084       .  S
C383        C384   1.399       .  A
C383        C388   1.409       .  A
C384        C385   1.392       .  A
C384        H395   1.083       .  S
C385        C386   1.407       .  A
C385        H396   1.083       .  S
C386        C387   1.405       .  A
C387        C388   1.402       .  A
C387        H397   1.082       .  S
C388        H398   1.082       .  S
C399        C400   1.407       .  A
C399        C404   1.403       .  A
C400        C401   1.394       .  A
C400        H413   1.083       .  S
C401        C402   1.400       .  A
C401        H414   1.083       .  S
C402        C405   1.481       .  S
C402        C403   1.409       .  A
C403        C404   1.398       .  A
C403        H415   1.082       .  S
C404        H416   1.083       .  S
C405        C406   1.343       .  D
C405        H417   1.086       .  S
C406        C407   1.478       .  S
C406        H418   1.085       .  S
C407        C408   1.398       .  A
C407        C412   1.408       .  A
C408        C409   1.392       .  A
C408        H419   1.084       .  S
C409        C410   1.408       .  A
C409        H420   1.083       .  S
C410        C411   1.404       .  A
C411        C412   1.400       .  A
C411        H421   1.082       .  S
C412        H422   1.082       .  S
C423        C424   1.404       .  A
C423        C428   1.406       .  A
C424        C425   1.399       .  A
C424        H437   1.082       .  S
C425        C426   1.405       .  A
C425        H438   1.084       .  S
C426        C429   1.482       .  S
C426        C427   1.405       .  A
C427        C428   1.392       .  A
C427        H439   1.081       .  S
C428        H440   1.083       .  S
C429        C430   1.349       .  D
C429        H441   1.085       .  S
C430        C431   1.483       .  S
C430        H442   1.085       .  S
C431        C432   1.405       .  A
C431        C436   1.404       .  A
C432        C433   1.400       .  A
C432        H443   1.084       .  S
C433        C434   1.404       .  A
C433        H444   1.083       .  S
C434        C435   1.407       .  A
C435        C436   1.393       .  A
C435        H445   1.083       .  S
C436        H446   1.081       .  S
C447        C448   1.406       .  A
C447        C452   1.407       .  A
C448        C449   1.397       .  A
C448        H461   1.083       .  S
C449        C450   1.402       .  A
C449        H462   1.083       .  S
C450        C453   1.484       .  S
C450        C451   1.406       .  A
C451        C452   1.401       .  A
C451        H463   1.082       .  S
C452        H464   1.083       .  S
C453        C454   1.347       .  D
C453        H465   1.086       .  S
C454        C455   1.485       .  S
C454        H466   1.086       .  S
C455        C456   1.404       .  A
C455        C460   1.405       .  A
C456        C457   1.401       .  A
C456        H467   1.084       .  S
C457        C458   1.407       .  A
C457        H468   1.083       .  S
C458        C459   1.406       .  A
C459        C460   1.396       .  A
C459        H469   1.083       .  S
C460        H470   1.082       .  S
C471        C472   1.406       .  A
C471        C476   1.407       .  A
C472        C473   1.398       .  A
C472        H485   1.083       .  S
C473        C474   1.402       .  A
C473        H486   1.083       .  S
C474        C477   1.484       .  S
C474        C475   1.406       .  A
C475        C476   1.399       .  A
C475        H487   1.082       .  S
C476        H488   1.083       .  S
C477        C478   1.347       .  D
C477        H489   1.086       .  S
C478        C479   1.486       .  S
C478        H490   1.086       .  S
C479        C480   1.403       .  A
C479        C484   1.406       .  A
C480        C481   1.400       .  A
C480        H491   1.084       .  S
C481        C482   1.407       .  A
C481        H492   1.083       .  S
C482        C483   1.405       .  A
C483        C484   1.397       .  A
C483        H493   1.083       .  S
C484        H494   1.082       .  S
C495        C496   1.406       .  A
C495        C500   1.406       .  A
C496        C497   1.397       .  A
C496        H509   1.083       .  S
C497        C498   1.402       .  A
C497        H510   1.084       .  S
C498        C501   1.484       .  S
C498        C499   1.407       .  A
C499        C500   1.399       .  A
C499        H511   1.082       .  S
C500        H512   1.083       .  S
C501        C502   1.347       .  D
C501        H513   1.085       .  S
C502        C503   1.486       .  S
C502        H514   1.086       .  S
C503        C504   1.404       .  A
C503        C508   1.407       .  A
C504        C505   1.399       .  A
C504        H515   1.084       .  S
C505        C506   1.405       .  A
C505        H516   1.083       .  S
C506        C507   1.405       .  A
C507        C508   1.397       .  A
C507        H517   1.083       .  S
C508        H518   1.082       .  S
C519        C520   1.404       .  A
C519        C524   1.400       .  A
C520        C521   1.396       .  A
C520        H533   1.083       .  S
C521        C522   1.403       .  A
C521        H534   1.083       .  S
C522        C525   1.488       .  S
C522        C523   1.411       .  A
C523        C524   1.400       .  A
C523        H535   1.081       .  S
C524        H536   1.083       .  S
C525        C526   1.347       .  D
C525        H537   1.084       .  S
C526       C1995   1.490       .  S
C526        H538   1.085       .  S
C527       C1994   1.490   1_455  S
C527        C528   1.403       .  A
C527        C532   1.410       .  A
C528        C529   1.396       .  A
C528        H539   1.084       .  S
C529        C530   1.406       .  A
C529        H540   1.083       .  S
C530        C531   1.406       .  A
C531        C532   1.401       .  A
C531        H541   1.083       .  S
C532        H542   1.081       .  S
C543        C544   1.403       .  A
C543        C548   1.401       .  A
C544        C545   1.397       .  A
C544        H557   1.083       .  S
C545        C546   1.404       .  A
C545        H558   1.084       .  S
C546        C549   1.486       .  S
C546        C547   1.409       .  A
C547        C548   1.399       .  A
C547        H559   1.081       .  S
C548        H560   1.080       .  S
C549        C550   1.348       .  D
C549        H561   1.084       .  S
C550       C1285   1.488   1_545  S
C550        H562   1.085       .  S
C551       C1284   1.488       .  S
C551        C552   1.404       .  A
C551        C556   1.408       .  A
C552        C553   1.399       .  A
C552        H563   1.084       .  S
C553        C554   1.405       .  A
C553        H564   1.083       .  S
C554        C555   1.406       .  A
C555        C556   1.397       .  A
C555        H565   1.083       .  S
C556        H566   1.081       .  S
C567        C568   1.400       .  A
C567        C572   1.405       .  A
C568        C569   1.399       .  A
C568        H581   1.080       .  S
C569        C570   1.406       .  A
C569        H582   1.083       .  S
C570        C573   1.495       .  S
C570        C571   1.410       .  A
C571        C572   1.399       .  A
C571        H583   1.079       .  S
C572        H584   1.083       .  S
C573        C574   1.350       .  D
C573        H585   1.085       .  S
C574        C575   1.489       .  S
C574        H586   1.082       .  S
C575        C576   1.403       .  A
C575        C580   1.408       .  A
C576        C577   1.398       .  A
C576        H587   1.083       .  S
C577        C578   1.406       .  A
C577        H588   1.083       .  S
C578        C579   1.406       .  A
C579        C580   1.400       .  A
C579        H589   1.083       .  S
C580        H590   1.081       .  S
C591        C592   1.407       .  A
C591        C596   1.406       .  A
C592        C593   1.402       .  A
C592        H605   1.083       .  S
C593        C594   1.406       .  A
C593        H606   1.084       .  S
C594       C2065   1.490   1_455  S
C594        C595   1.407       .  A
C595        C596   1.395       .  A
C595        H607   1.081       .  S
C596        H608   1.083       .  S
C597        C598   1.349       .  D
C597       C2062   1.490       .  S
C597        H609   1.085       .  S
C598        C599   1.487       .  S
C598        H610   1.085       .  S
C599        C600   1.404       .  A
C599        C604   1.408       .  A
C600        C601   1.397       .  A
C600        H611   1.084       .  S
C601        C602   1.400       .  A
C601        H612   1.077       .  S
C602        C603   1.405       .  A
C603        C604   1.400       .  A
C603        H613   1.083       .  S
C604        H614   1.081       .  S
C615        C616   1.404       .  A
C615        C620   1.407       .  A
C616        C617   1.399       .  A
C616        H629   1.083       .  S
C617        C618   1.406       .  A
C617        H630   1.084       .  S
C618       C1355   1.492       .  S
C618        C619   1.409       .  A
C619        C620   1.397       .  A
C619        H631   1.079       .  S
C620        H632   1.083       .  S
C621        C622   1.349       .  D
C621       C1352   1.492   1_545  S
C621        H633   1.085       .  S
C622        C623   1.488       .  S
C622        H634   1.083       .  S
C623        C624   1.402       .  A
C623        C628   1.407       .  A
C624        C625   1.397       .  A
C624        H635   1.083       .  S
C625        C626   1.404       .  A
C625        H636   1.076       .  S
C626        C627   1.408       .  A
C627        C628   1.399       .  A
C627        H637   1.081       .  S
C628        H638   1.081       .  S
C639        C640   1.406       .  A
C639        C644   1.407       .  A
C640        C641   1.402       .  A
C640        H653   1.083       .  S
C641        C642   1.405       .  A
C641        H654   1.083       .  S
C642        C645   1.488       .  S
C642        C643   1.406       .  A
C643        C644   1.397       .  A
C643        H655   1.082       .  S
C644        H656   1.083       .  S
C645        C646   1.349       .  D
C645        H657   1.085       .  S
C646        C647   1.486       .  S
C646        H658   1.085       .  S
C647        C648   1.405       .  A
C647        C652   1.407       .  A
C648        C649   1.398       .  A
C648        H659   1.084       .  S
C649        C650   1.401       .  A
C649        H660   1.083       .  S
C650        C651   1.405       .  A
C651        C652   1.398       .  A
C651        H661   1.084       .  S
C652        H662   1.082       .  S
C663        C664   1.406       .  A
C663        C668   1.406       .  A
C664        C665   1.398       .  A
C664        H677   1.083       .  S
C665        C666   1.403       .  A
C665        H678   1.084       .  S
C666        C669   1.489       .  S
C666        C667   1.409       .  A
C667        C668   1.400       .  A
C667        H679   1.081       .  S
C668        H680   1.083       .  S
C669        C670   1.348       .  D
C669        H681   1.085       .  S
C670        C671   1.489       .  S
C670        H682   1.084       .  S
C671        C672   1.403       .  A
C671        C676   1.409       .  A
C672        C673   1.397       .  A
C672        H683   1.084       .  S
C673        C674   1.406       .  A
C673       H2152   1.083       .  S
C674        C675   1.406       .  A
C675        C676   1.401       .  A
C675        H685   1.083       .  S
C676        H686   1.081       .  S
H684       C2141   1.083       .  S
C687        C688   1.405       .  A
C687        C692   1.406       .  A
C688        C689   1.397       .  A
C688        H701   1.083       .  S
C689        C690   1.404       .  A
C689        H702   1.083       .  S
C690        C693   1.488       .  S
C690        C691   1.408       .  A
C691        C692   1.400       .  A
C691        H703   1.081       .  S
C692        H704   1.082       .  S
C693        C694   1.349       .  D
C693        H705   1.084       .  S
C694        C695   1.490       .  S
C694        H706   1.084       .  S
C695        C696   1.404       .  A
C695        C700   1.409       .  A
C696        C697   1.399       .  A
C696        H707   1.083       .  S
C697        C698   1.406       .  A
C697        H708   1.083       .  S
C698        C699   1.406       .  A
C699        C700   1.398       .  A
C699        H709   1.082       .  S
C700        H710   1.081       .  S
C711        C712   1.406       .  A
C711        C716   1.406       .  A
C712        C713   1.397       .  A
C712        H725   1.083       .  S
C713        C714   1.402       .  A
C713        H726   1.083       .  S
C714        C717   1.485       .  S
C714        C715   1.408       .  A
C715        C716   1.398       .  A
C715        H727   1.082       .  S
C716        H728   1.083       .  S
C717        C718   1.347       .  D
C717        H729   1.084       .  S
C718        C719   1.487       .  S
C718        H730   1.085       .  S
C719        C720   1.403       .  A
C719        C724   1.408       .  A
C720        C721   1.397       .  A
C720        H731   1.084       .  S
C721        C722   1.406       .  A
C721        H732   1.083       .  S
C722        C723   1.406       .  A
C723        C724   1.399       .  A
C723        H733   1.083       .  S
C724        H734   1.081       .  S
Zn735       O739   1.956       .  S
Zn735       O740   2.011       .  S
Zn735       O744   1.999       .  S
Zn735       O751   2.011       .  S
Zn736       O739   1.955       .  S
Zn736       O741   2.005       .  S
Zn736       O743   2.019       .  S
Zn736       O747   2.012       .  S
Zn737       O739   1.976       .  S
Zn737       O742   2.038       .  S
Zn737       O745   2.046       .  S
Zn737       O748   2.037       .  S
Zn738       O739   1.956       .  S
Zn738       O746   2.007       .  S
Zn738       O749   2.026       .  S
Zn738       O750   2.013       .  S
O740        C752   1.273       .  A
O741        C753   1.274       .  A
O742        C754   1.277       .  A
O743        C752   1.274       .  A
O744        C754   1.272       .  A
O745        C753   1.278       .  A
O746        C755   1.274       .  A
O747        C756   1.273       .  A
O748        C755   1.276       .  A
O749        C756   1.275       .  A
O750        C757   1.273       .  A
O751        C757   1.272       .  A
C752       C1421   1.482       .  S
C753       C1373   1.486       .  S
C754       C1349   1.483       .  S
C755       C1325   1.485       .  S
C756       C1397   1.484       .  S
C757       C1445   1.481       .  S
C758        H759   1.110       .  S
C758        C764   1.535       .  S
C758        C763   1.538       .  S
C758        C762   1.542       .  S
C760        H761   1.111       .  S
C760        C766   1.537       .  S
C760        C765   1.539       .  S
C760        C767   1.541       .  S
C762        C765   1.380       .  D
C762       C1360   1.498       .  S
C763        C766   1.373       .  D
C763       C1336   1.488       .  S
C764        C767   1.377       .  D
C764       C1384   1.484       .  S
C765       C1277   1.482       .  S
C766       C1253   1.482       .  S
C767       C1301   1.491       .  S
Zn768       O772   1.956       .  S
Zn768       O773   2.012       .  S
Zn768       O777   2.018       .  S
Zn768       O784   2.014       .  S
Zn769       O772   1.971       .  S
Zn769       O774   2.031       .  S
Zn769       O776   2.032       .  S
Zn769       O780   2.039       .  S
Zn770       O772   1.954       .  S
Zn770       O775   2.016       .  S
Zn770       O778   2.004       .  S
Zn770       O781   2.011       .  S
Zn771       O772   1.959       .  S
Zn771       O779   2.018       .  S
Zn771       O782   2.004       .  S
Zn771       O783   2.022       .  S
O773        C785   1.274       .  A
O774        C786   1.275       .  A
O775        C787   1.273       .  A
O776        C785   1.276       .  A
O777        C787   1.273       .  A
O778        C786   1.273       .  A
O779        C788   1.273       .  A
O780        C789   1.277       .  A
O781        C788   1.273       .  A
O782        C789   1.273       .  A
O783        C790   1.274       .  A
O784        C790   1.274       .  A
C785       C1312   1.484       .  S
C786       C1192   1.483       .  S
C787       C1216   1.483       .  S
C788       C1240   1.479       .  S
C789       C1264   1.484       .  S
C790       C1288   1.482       .  S
Zn791       O795   1.956       .  S
Zn791       O796   2.011       .  S
Zn791       O800   2.036       .  S
Zn791       O807   2.017       .  S
Zn792       O795   1.977       .  S
Zn792       O797   2.050       .  S
Zn792       O799   2.059       .  S
Zn792       O803   2.041       .  S
Zn793       O795   1.935       .  S
Zn793       O798   1.979       .  S
Zn793       O801   1.967       .  S
Zn793       O804   1.970       .  S
Zn794       O795   1.968       .  S
Zn794       O802   2.047       .  S
Zn794       O805   2.022       .  S
Zn794       O806   2.035       .  S
O796        C808   1.275       .  A
O797        C809   1.276       .  A
O798        C810   1.268       .  A
O799        C808   1.279       .  A
O800        C810   1.275       .  A
O801        C809   1.268       .  A
O802        C811   1.275       .  A
O803        C812   1.279       .  A
O804        C811   1.267       .  A
O805        C812   1.276       .  A
O806        C813   1.277       .  A
O807        C813   1.275       .  A
C808       C1096   1.490       .  S
C809       C1144   1.480       .  S
C810       C1109   1.479       .  S
C811       C1168   1.481       .  S
C812       C1061   1.488       .  S
C813       C1048   1.487       .  S
C814        H815   1.111       .  S
C814        C820   1.538       .  S
C814        C819   1.540       .  S
C814        C818   1.540       .  S
C816        H817   1.111       .  S
C816        C822   1.538       .  S
C816        C821   1.539       .  S
C816        C823   1.544       .  S
C818        C821   1.375       .  D
C818       C1085   1.484       .  S
C819        C822   1.376       .  D
C819       C1072   1.488       .  S
C820        C823   1.379       .  D
C820       C1037   1.494       .  S
C821       C1024   1.486       .  S
C822        C976   1.491       .  S
C823       C1000   1.486       .  S
Zn824       O828   1.965       .  S
Zn824       O829   2.027       .  S
Zn824       O833   2.018       .  S
Zn824       O840   2.021       .  S
Zn825       O828   1.945       .  S
Zn825       O830   1.983       .  S
Zn825       O832   1.987       .  S
Zn825       O836   1.998       .  S
Zn826       O828   1.970       .  S
Zn826       O831   2.029       .  S
Zn826       O834   2.042       .  S
Zn826       O837   2.030       .  S
Zn827       O828   1.958       .  S
Zn827       O835   2.018       .  S
Zn827       O838   2.027       .  S
Zn827       O839   2.023       .  S
O829        C841   1.274       .  A
O830        C842   1.270       .  A
O831        C843   1.276       .  A
O832        C841   1.270       .  A
O833        C843   1.275       .  A
O834        C842   1.275       .  A
O835        C844   1.275       .  A
O836        C845   1.271       .  A
O837        C844   1.276       .  A
O838        C845   1.275       .  A
O839        C846   1.275       .  A
O840        C846   1.275       .  A
C841        C941   1.477       .  S
C842        C893   1.482       .  S
C843        C989   1.481       .  S
C844       C1013   1.485       .  S
C845        C917   1.481       .  S
C846        C965   1.486       .  S
Zn847       O851   1.962       .  S
Zn847       O856   2.034       .  S
Zn847       O863   2.024       .  S
Zn848      O1585   1.963   1_565  S
Zn848       O853   2.029       .  S
Zn848      O2323   2.023       .  S
Zn848       O859   2.019       .  S
Zn849       O851   1.942   1_654  S
Zn849       O854   1.984   1_655  S
Zn849      O1591   1.992       .  S
Zn849      O2328   1.982       .  S
Zn850      O2319   1.967       .  S
Zn850       O858   2.038       .  S
Zn850      O2330   2.023       .  S
O851      Zn1582   1.963   1_455  S
O851      Zn2318   1.967   1_455  S
O852        C864   1.274       .  A
O853        C865   1.275   1_556  A
O854        C866   1.269       .  A
O855      Zn2316   2.023   1_455  S
O855        C864   1.275       .  A
O856        C866   1.275   1_556  A
O857      Zn1583   1.992   1_565  S
O857        C865   1.270       .  A
O858        C867   1.275   1_556  A
O859        C868   1.275       .  A
O860      Zn2317   1.982       .  S
O860        C867   1.270       .  A
O861        C868   1.275       .  A
O862      Zn2318   2.023   1_455  S
O862        C869   1.275       .  A
O863        C869   1.275       .  A
C864       C1229   1.482       .  S
C865        C928   1.480       .  S
C866        C904   1.480       .  S
C867        C952   1.479       .  S
C868       C1205   1.483       .  S
C869       C1181   1.483       .  S
Zn870       O874   1.932   1_655  S
Zn870      O2343   1.977       .  S
Zn870      O1613   1.976       .  S
Zn870       O886   1.976   1_655  S
Zn871      O2342   1.960       .  S
Zn871       O878   2.034       .  S
Zn871      O2350   2.013       .  S
Zn872      O1608   1.966       .  S
Zn872       O877   2.040       .  S
Zn872       O880   2.023       .  S
Zn872      O2351   2.026       .  S
Zn873       O874   1.969       .  S
Zn873       O884   2.033       .  S
Zn873       O885   2.044       .  S
O874      Zn2339   1.960   1_455  S
O874      Zn1606   1.966   1_455  S
O875      Zn2338   1.977       .  S
O875        C887   1.269       .  A
O876        C888   1.275       .  A
O877        C889   1.276       .  A
O878        C887   1.274       .  A
O879      Zn1604   1.977   1_565  S
O879        C889   1.268       .  A
O880        C888   1.275       .  A
O881        C890   1.275       .  A
O882      Zn2339   2.013   1_455  S
O882        C891   1.275       .  A
O883      Zn2340   2.026   1_455  S
O883        C890   1.276       .  A
O884        C891   1.277       .  A
O885        C892   1.276       .  A
O886        C892   1.269       .  A
C887       C1157   1.478       .  S
C888       C1432   1.484       .  S
C889       C1133   1.478       .  S
C890       C1456   1.483       .  S
C891       C1408   1.483       .  S
C892       C1120   1.481       .  S
C893        C894   1.405       .  A
C893        C898   1.407       .  A
C894        C895   1.401       .  A
C894        H907   1.083       .  S
C895        C896   1.405       .  A
C895        H908   1.084       .  S
C896        C899   1.483       .  S
C896        C897   1.405       .  A
C897        C898   1.393       .  A
C897        H909   1.081       .  S
C898        H910   1.083       .  S
C899        C900   1.349       .  D
C899        H911   1.084       .  S
C900        C901   1.485       .  S
C900        H912   1.085       .  S
C901        C902   1.405       .  A
C901        C906   1.406       .  A
C902        C903   1.398       .  A
C902        H913   1.084       .  S
C903        C904   1.404       .  A
C903        H914   1.083       .  S
C904        C905   1.407       .  A
C905        C906   1.395       .  A
C905        H915   1.084       .  S
C906        H916   1.080       .  S
C917        C918   1.407       .  A
C917        C922   1.404       .  A
C918        C919   1.398       .  A
C918        H931   1.083       .  S
C919        C920   1.403       .  A
C919        H932   1.083       .  S
C920        C923   1.487       .  S
C920        C921   1.409       .  A
C921        C922   1.397       .  A
C921        H933   1.081       .  S
C922        H934   1.083       .  S
C923        C924   1.348       .  D
C923        H935   1.083       .  S
C924        C925   1.487       .  S
C924        H936   1.084       .  S
C925        C926   1.403       .  A
C925        C930   1.409       .  A
C926        C927   1.395       .  A
C926        H937   1.083       .  S
C927        C928   1.406       .  A
C927        H938   1.083       .  S
C928        C929   1.404       .  A
C929        C930   1.399       .  A
C929        H939   1.083       .  S
C930        H940   1.080       .  S
C941        C942   1.404       .  A
C941        C946   1.406       .  A
C942        C943   1.398       .  A
C942        H955   1.083       .  S
C943        C944   1.404       .  A
C943        H956   1.084       .  S
C944        C947   1.480       .  S
C944        C945   1.404       .  A
C945        C946   1.394       .  A
C945        H957   1.081       .  S
C946        H958   1.084       .  S
C947        C948   1.349       .  D
C947        H959   1.084       .  S
C948        C949   1.485       .  S
C948        H960   1.086       .  S
C949        C950   1.405       .  A
C949        C954   1.406       .  A
C950        C951   1.401       .  A
C950        H961   1.084       .  S
C951        C952   1.405       .  A
C951        H962   1.083       .  S
C952        C953   1.406       .  A
C953        C954   1.392       .  A
C953        H963   1.084       .  S
C954        H964   1.080       .  S
C965        C966   1.406       .  A
C965        C970   1.406       .  A
C966        C967   1.399       .  A
C966        H979   1.083       .  S
C967        C968   1.404       .  A
C967        H980   1.084       .  S
C968       C2439   1.492       .  S
C968        C969   1.409       .  A
C969        C970   1.399       .  A
C969        H981   1.082       .  S
C970        H982   1.084       .  S
C971        C972   1.349       .  D
C971       C2436   1.492   1_455  S
C971        H983   1.086       .  S
C972        C973   1.491       .  S
C972        H984   1.085       .  S
C973        C974   1.403       .  A
C973        C978   1.410       .  A
C974        C975   1.397       .  A
C974        H985   1.084       .  S
C975        C976   1.405       .  A
C975        H986   1.083       .  S
C976        C977   1.401       .  A
C977        C978   1.402       .  A
C977        H987   1.082       .  S
C978        H988   1.080       .  S
C989        C990   1.406       .  A
C989        C994   1.405       .  A
C990        C991   1.399       .  A
C990       H1003   1.084       .  S
C991        C992   1.403       .  A
C991       H1004   1.083       .  S
C992        C993   1.407       .  A
C993        C994   1.399       .  A
C993       H1005   1.082       .  S
C994       H1006   1.083       .  S
C995        C996   1.349       .  D
C995       H1007   1.084       .  S
C996        C997   1.490       .  S
C996       H1008   1.087       .  S
C997        C998   1.406       .  A
C997       C1002   1.409       .  A
C998        C999   1.399       .  A
C998       H1009   1.083       .  S
C999       C1000   1.400       .  A
C999       H1010   1.081       .  S
C1000      C1001   1.405       .  A
C1001      C1002   1.399       .  A
C1001      H1011   1.082       .  S
C1002      H1012   1.081       .  S
C1013      C1014   1.406       .  A
C1013      C1018   1.406       .  A
C1014      C1015   1.397       .  A
C1014      H1027   1.083       .  S
C1015      C1016   1.404       .  A
C1015      H1028   1.083       .  S
C1016      C1019   1.491       .  S
C1016      C1017   1.409       .  A
C1017      C1018   1.401       .  A
C1017      H1029   1.081       .  S
C1018      H1030   1.083       .  S
C1019      C1020   1.350       .  D
C1019      H1031   1.084       .  S
C1020      C1021   1.492       .  S
C1020      H1032   1.084       .  S
C1021      C1022   1.406       .  A
C1021      C1026   1.409       .  A
C1022      C1023   1.400       .  A
C1022      H1033   1.083       .  S
C1023      C1024   1.401       .  A
C1023      H1034   1.083       .  S
C1024      C1025   1.404       .  A
C1025      C1026   1.399       .  A
C1025      H1035   1.082       .  S
C1026      H1036   1.081       .  S
C1037      C1038   1.401       .  A
C1037      C1042   1.408       .  A
C1038      C1039   1.397       .  A
C1038      H1051   1.079       .  S
C1039      C1040   1.404       .  A
C1039      H1052   1.084       .  S
C1040      C1043   1.490       .  S
C1040      C1041   1.409       .  A
C1041      C1042   1.402       .  A
C1041      H1053   1.081       .  S
C1042      H1054   1.083       .  S
C1043      C1044   1.348       .  D
C1043      H1055   1.086       .  S
C1044      H1056   1.085       .  S
C1045      C1046   1.403       .  A
C1045      C1050   1.409       .  A
C1046      C1047   1.400       .  A
C1046      H1057   1.084       .  S
C1047      C1048   1.408       .  A
C1047      H1058   1.083       .  S
C1048      C1049   1.406       .  A
C1049      C1050   1.400       .  A
C1049      H1059   1.083       .  S
C1061      C1062   1.407       .  A
C1061      C1066   1.406       .  A
C1062      C1063   1.400       .  A
C1062      H1075   1.083       .  S
C1063      C1064   1.404       .  A
C1063      H1076   1.084       .  S
C1064      C2535   1.493       .  S
C1064      C1065   1.410       .  A
C1065      C1066   1.401       .  A
C1065      H1077   1.081       .  S
C1066      H1078   1.083       .  S
C1067      C1068   1.348       .  D
C1067      C2532   1.493   1_455  S
C1067      H1079   1.086       .  S
C1068      C1069   1.489       .  S
C1068      H1080   1.085       .  S
C1069      C1070   1.403       .  A
C1069      C1074   1.411       .  A
C1070      C1071   1.395       .  A
C1070      H1081   1.083       .  S
C1071      C1072   1.404       .  A
C1071      H1082   1.083       .  S
C1072      C1073   1.403       .  A
C1073      C1074   1.405       .  A
C1073      H1083   1.083       .  S
C1074      H1084   1.082       .  S
C1085      C1086   1.401       .  A
C1085      C1090   1.402       .  A
C1086      C1087   1.400       .  A
C1086      H1099   1.080       .  S
C1087      C1088   1.406       .  A
C1087      H1100   1.083       .  S
C1088      C1091   1.497       .  S
C1088      C1089   1.413       .  A
C1089      C1090   1.402       .  A
C1089      H1101   1.079       .  S
C1090      H1102   1.083       .  S
C1091      C1092   1.350       .  D
C1091      H1103   1.085       .  S
C1092      C1093   1.493       .  S
C1092      H1104   1.083       .  S
C1093      C1094   1.403       .  A
C1093      C1098   1.411       .  A
C1094      C1095   1.397       .  A
C1094      H1105   1.084       .  S
C1095      C1096   1.407       .  A
C1095      H1106   1.083       .  S
C1096      C1097   1.407       .  A
C1097      C1098   1.405       .  A
C1097      H1107   1.083       .  S
C1098      H1108   1.081       .  S
C1109      C1110   1.407       .  A
C1109      C1114   1.403       .  A
C1110      C1111   1.395       .  A
C1110      H1123   1.084       .  S
C1111      C1112   1.401       .  A
C1111      H1124   1.083       .  S
C1112      C1115   1.485       .  S
C1112      C1113   1.410       .  A
C1113      C1114   1.398       .  A
C1113      H1125   1.081       .  S
C1114      H1126   1.082       .  S
C1115      C1116   1.344       .  D
C1115      H1127   1.085       .  S
C1116      C1117   1.482       .  S
C1116      H1128   1.084       .  S
C1117      C1118   1.399       .  A
C1117      C1122   1.409       .  A
C1118      C1119   1.392       .  A
C1118      H1129   1.083       .  S
C1119      C1120   1.407       .  A
C1119      H1130   1.083       .  S
C1120      C1121   1.405       .  A
C1121      C1122   1.402       .  A
C1121      H1131   1.082       .  S
C1122      H1132   1.082       .  S
C1133      C1134   1.407       .  A
C1133      C1138   1.403       .  A
C1134      C1135   1.394       .  A
C1134      H1147   1.083       .  S
C1135      C1136   1.400       .  A
C1135      H1148   1.083       .  S
C1136      C1139   1.481       .  S
C1136      C1137   1.409       .  A
C1137      C1138   1.398       .  A
C1137      H1149   1.082       .  S
C1138      H1150   1.083       .  S
C1139      C1140   1.343       .  D
C1139      H1151   1.086       .  S
C1140      C1141   1.478       .  S
C1140      H1152   1.085       .  S
C1141      C1142   1.398       .  A
C1141      C1146   1.408       .  A
C1142      C1143   1.392       .  A
C1142      H1153   1.084       .  S
C1143      C1144   1.408       .  A
C1143      H1154   1.083       .  S
C1144      C1145   1.404       .  A
C1145      C1146   1.400       .  A
C1145      H1155   1.082       .  S
C1146      H1156   1.082       .  S
C1157      C1158   1.404       .  A
C1157      C1162   1.406       .  A
C1158      C1159   1.399       .  A
C1158      H1171   1.082       .  S
C1159      C1160   1.405       .  A
C1159      H1172   1.084       .  S
C1160      C1163   1.482       .  S
C1160      C1161   1.405       .  A
C1161      C1162   1.392       .  A
C1161      H1173   1.081       .  S
C1162      H1174   1.083       .  S
C1163      C1164   1.349       .  D
C1163      H1175   1.085       .  S
C1164      C1165   1.483       .  S
C1164      H1176   1.085       .  S
C1165      C1166   1.405       .  A
C1165      C1170   1.404       .  A
C1166      C1167   1.400       .  A
C1166      H1177   1.084       .  S
C1167      C1168   1.404       .  A
C1167      H1178   1.083       .  S
C1168      C1169   1.407       .  A
C1169      C1170   1.393       .  A
C1169      H1179   1.083       .  S
C1170      H1180   1.081       .  S
C1181      C1182   1.406       .  A
C1181      C1186   1.407       .  A
C1182      C1183   1.397       .  A
C1182      H1195   1.083       .  S
C1183      C1184   1.402       .  A
C1183      H1196   1.083       .  S
C1184      C1187   1.484       .  S
C1184      C1185   1.406       .  A
C1185      C1186   1.401       .  A
C1185      H1197   1.082       .  S
C1186      H1198   1.083       .  S
C1187      C1188   1.347       .  D
C1187      H1199   1.086       .  S
C1188      C1189   1.485       .  S
C1188      H1200   1.086       .  S
C1189      C1190   1.404       .  A
C1189      C1194   1.405       .  A
C1190      C1191   1.401       .  A
C1190      H1201   1.084       .  S
C1191      C1192   1.407       .  A
C1191      H1202   1.083       .  S
C1192      C1193   1.406       .  A
C1193      C1194   1.396       .  A
C1193      H1203   1.083       .  S
C1194      H1204   1.082       .  S
C1205      C1206   1.406       .  A
C1205      C1210   1.407       .  A
C1206      C1207   1.398       .  A
C1206      H1219   1.083       .  S
C1207      C1208   1.402       .  A
C1207      H1220   1.083       .  S
C1208      C1211   1.484       .  S
C1208      C1209   1.406       .  A
C1209      C1210   1.399       .  A
C1209      H1221   1.082       .  S
C1210      H1222   1.083       .  S
C1211      C1212   1.347       .  D
C1211      H1223   1.086       .  S
C1212      C1213   1.486       .  S
C1212      H1224   1.086       .  S
C1213      C1214   1.403       .  A
C1213      C1218   1.406       .  A
C1214      C1215   1.400       .  A
C1214      H1225   1.084       .  S
C1215      C1216   1.407       .  A
C1215      H1226   1.083       .  S
C1216      C1217   1.405       .  A
C1217      C1218   1.397       .  A
C1217      H1227   1.083       .  S
C1218      H1228   1.082       .  S
C1229      C1230   1.406       .  A
C1229      C1234   1.406       .  A
C1230      C1231   1.397       .  A
C1230      H1243   1.083       .  S
C1231      C1232   1.402       .  A
C1231      H1244   1.084       .  S
C1232      C1235   1.484       .  S
C1232      C1233   1.407       .  A
C1233      C1234   1.399       .  A
C1233      H1245   1.082       .  S
C1234      H1246   1.083       .  S
C1235      C1236   1.347       .  D
C1235      H1247   1.085       .  S
C1236      C1237   1.486       .  S
C1236      H1248   1.086       .  S
C1237      C1238   1.404       .  A
C1237      C1242   1.407       .  A
C1238      C1239   1.399       .  A
C1238      H1249   1.084       .  S
C1239      C1240   1.405       .  A
C1239      H1250   1.083       .  S
C1240      C1241   1.405       .  A
C1241      C1242   1.397       .  A
C1241      H1251   1.083       .  S
C1242      H1252   1.082       .  S
C1253      C1254   1.404       .  A
C1253      C1258   1.400       .  A
C1254      C1255   1.396       .  A
C1254      H1267   1.083       .  S
C1255      C1256   1.403       .  A
C1255      H1268   1.083       .  S
C1256      C1259   1.488       .  S
C1256      C1257   1.411       .  A
C1257      C1258   1.400       .  A
C1257      H1269   1.081       .  S
C1258      H1270   1.083       .  S
C1259      C1260   1.347       .  D
C1259      H1271   1.084       .  S
C1260      C2729   1.490       .  S
C1260      H1272   1.085       .  S
C1261      C2728   1.490   1_455  S
C1261      C1262   1.403       .  A
C1261      C1266   1.410       .  A
C1262      C1263   1.396       .  A
C1262      H1273   1.084       .  S
C1263      C1264   1.406       .  A
C1263      H1274   1.083       .  S
C1264      C1265   1.406       .  A
C1265      C1266   1.401       .  A
C1265      H1275   1.083       .  S
C1266      H1276   1.081       .  S
C1277      C1278   1.403       .  A
C1277      C1282   1.401       .  A
C1278      C1279   1.397       .  A
C1278      H1291   1.083       .  S
C1279      C1280   1.404       .  A
C1279      H1292   1.083       .  S
C1280      C1283   1.486       .  S
C1280      C1281   1.409       .  A
C1281      C1282   1.399       .  A
C1281      H1293   1.081       .  S
C1282      H1294   1.080       .  S
C1283      C1284   1.348       .  D
C1283      H1295   1.084       .  S
C1284      H1296   1.085       .  S
C1285      C1286   1.404       .  A
C1285      C1290   1.408       .  A
C1286      C1287   1.399       .  A
C1286      H1297   1.084       .  S
C1287      C1288   1.405       .  A
C1287      H1298   1.083       .  S
C1288      C1289   1.406       .  A
C1289      C1290   1.397       .  A
C1289      H1299   1.083       .  S
C1290      H1300   1.081       .  S
C1301      C1302   1.400       .  A
C1301      C1306   1.405       .  A
C1302      C1303   1.399       .  A
C1302      H1315   1.080       .  S
C1303      C1304   1.406       .  A
C1303      H1316   1.083       .  S
C1304      C1307   1.495       .  S
C1304      C1305   1.410       .  A
C1305      C1306   1.399       .  A
C1305      H1317   1.079       .  S
C1306      H1318   1.083       .  S
C1307      C1308   1.350       .  D
C1307      H1319   1.085       .  S
C1308      C1309   1.489       .  S
C1308      H1320   1.082       .  S
C1309      C1310   1.403       .  A
C1309      C1314   1.408       .  A
C1310      C1311   1.398       .  A
C1310      H1321   1.083       .  S
C1311      C1312   1.406       .  A
C1311      H1322   1.083       .  S
C1312      C1313   1.406       .  A
C1313      C1314   1.400       .  A
C1313      H1323   1.083       .  S
C1314      H1324   1.081       .  S
C1325      C1326   1.407       .  A
C1325      C1330   1.406       .  A
C1326      C1327   1.402       .  A
C1326      H1339   1.083       .  S
C1327      C1328   1.406       .  A
C1327      H1340   1.084       .  S
C1328      C2799   1.490   1_455  S
C1328      C1329   1.407       .  A
C1329      C1330   1.395       .  A
C1329      H1341   1.081       .  S
C1330      H1342   1.083       .  S
C1331      C1332   1.349       .  D
C1331      C2796   1.490       .  S
C1331      H1343   1.085       .  S
C1332      C1333   1.487       .  S
C1332      H1344   1.085       .  S
C1333      C1334   1.404       .  A
C1333      C1338   1.408       .  A
C1334      C1335   1.397       .  A
C1334      H1345   1.084       .  S
C1335      C1336   1.400       .  A
C1335      H1346   1.077       .  S
C1336      C1337   1.405       .  A
C1337      C1338   1.400       .  A
C1337      H1347   1.083       .  S
C1338      H1348   1.081       .  S
C1349      C1350   1.404       .  A
C1349      C1354   1.407       .  A
C1350      C1351   1.399       .  A
C1350      H1363   1.083       .  S
C1351      C1352   1.406       .  A
C1351      H1364   1.084       .  S
C1352      C1353   1.409       .  A
C1353      C1354   1.397       .  A
C1353      H1365   1.079   1_565  S
C1354      H1366   1.083       .  S
C1355      C1356   1.349       .  D
C1355      H1367   1.085       .  S
C1356      C1357   1.488       .  S
C1356      H1368   1.083       .  S
C1357      C1358   1.402       .  A
C1357      C1362   1.407       .  A
C1358      C1359   1.397       .  A
C1358      H1369   1.083       .  S
C1359      C1360   1.404       .  A
C1359      H1370   1.076       .  S
C1360      C1361   1.408       .  A
C1361      C1362   1.399       .  A
C1361      H1371   1.081       .  S
C1362      H1372   1.081       .  S
C1373      C1374   1.406       .  A
C1373      C1378   1.407       .  A
C1374      C1375   1.402       .  A
C1374      H1387   1.083       .  S
C1375      C1376   1.405       .  A
C1375      H1388   1.083       .  S
C1376      C1379   1.488       .  S
C1376      C1377   1.406       .  A
C1377      C1378   1.397       .  A
C1377      H1389   1.082       .  S
C1378      H1390   1.083       .  S
C1379      C1380   1.349       .  D
C1379      H1391   1.085       .  S
C1380      C1381   1.486       .  S
C1380      H1392   1.085       .  S
C1381      C1382   1.405       .  A
C1381      C1386   1.407       .  A
C1382      C1383   1.398       .  A
C1382      H1393   1.084       .  S
C1383      C1384   1.401       .  A
C1383      H1394   1.083       .  S
C1384      C1385   1.405       .  A
C1385      C1386   1.398       .  A
C1385      H1395   1.084       .  S
C1386      H1396   1.082       .  S
C1397      C1398   1.406       .  A
C1397      C1402   1.406       .  A
C1398      C1399   1.398       .  A
C1398      H1411   1.083       .  S
C1399      C1400   1.403       .  A
C1399      H1412   1.084       .  S
C1400      C1403   1.489       .  S
C1400      C1401   1.409       .  A
C1401      C1402   1.400       .  A
C1401      H1413   1.081       .  S
C1402      H1414   1.083       .  S
C1403      C1404   1.348       .  D
C1403      H1415   1.085       .  S
C1404      C1405   1.489       .  S
C1404      H1416   1.084       .  S
C1405      C1406   1.403       .  A
C1405      C1410   1.409       .  A
C1406      C1407   1.397       .  A
C1406      H1417   1.084       .  S
C1407      C1408   1.406       .  A
C1407      H2886   1.083       .  S
C1408      C1409   1.406       .  A
C1409      C1410   1.401       .  A
C1409      H1419   1.083       .  S
C1410      H1420   1.081       .  S
H1418      C2875   1.083       .  S
C1421      C1422   1.405       .  A
C1421      C1426   1.406       .  A
C1422      C1423   1.397       .  A
C1422      H1435   1.083       .  S
C1423      C1424   1.404       .  A
C1423      H1436   1.083       .  S
C1424      C1427   1.488       .  S
C1424      C1425   1.408       .  A
C1425      C1426   1.400       .  A
C1425      H1437   1.081       .  S
C1426      H1438   1.082       .  S
C1427      C1428   1.349       .  D
C1427      H1439   1.084       .  S
C1428      C1429   1.490       .  S
C1428      H1440   1.084       .  S
C1429      C1430   1.404       .  A
C1429      C1434   1.409       .  A
C1430      C1431   1.399       .  A
C1430      H1441   1.083       .  S
C1431      C1432   1.406       .  A
C1431      H1442   1.083       .  S
C1432      C1433   1.406       .  A
C1433      C1434   1.398       .  A
C1433      H1443   1.082       .  S
C1434      H1444   1.081       .  S
C1445      C1446   1.406       .  A
C1445      C1450   1.406       .  A
C1446      C1447   1.397       .  A
C1446      H1459   1.083       .  S
C1447      C1448   1.402       .  A
C1447      H1460   1.083       .  S
C1448      C1451   1.485       .  S
C1448      C1449   1.408       .  A
C1449      C1450   1.398       .  A
C1449      H1461   1.082       .  S
C1450      H1462   1.083       .  S
C1451      C1452   1.347       .  D
C1451      H1463   1.084       .  S
C1452      C1453   1.487       .  S
C1452      H1464   1.085       .  S
C1453      C1454   1.403       .  A
C1453      C1458   1.408       .  A
C1454      C1455   1.397       .  A
C1454      H1465   1.084       .  S
C1455      C1456   1.406       .  A
C1455      H1466   1.083       .  S
C1456      C1457   1.406       .  A
C1457      C1458   1.399       .  A
C1457      H1467   1.083       .  S
C1458      H1468   1.081       .  S
Zn1469     O1473   1.956       .  S
Zn1469     O1474   2.011       .  S
Zn1469     O1478   1.999       .  S
Zn1469     O1485   2.011       .  S
Zn1470     O1473   1.955       .  S
Zn1470     O1475   2.005       .  S
Zn1470     O1477   2.019       .  S
Zn1470     O1481   2.012       .  S
Zn1471     O1473   1.976       .  S
Zn1471     O1476   2.038       .  S
Zn1471     O1479   2.046       .  S
Zn1471     O1482   2.037       .  S
Zn1472     O1473   1.956       .  S
Zn1472     O1480   2.007       .  S
Zn1472     O1483   2.026       .  S
Zn1472     O1484   2.013       .  S
O1474      C1486   1.273       .  A
O1475      C1487   1.274       .  A
O1476      C1488   1.277       .  A
O1477      C1486   1.274       .  A
O1478      C1488   1.272       .  A
O1479      C1487   1.278       .  A
O1480      C1489   1.274       .  A
O1481      C1490   1.273       .  A
O1482      C1489   1.276       .  A
O1483      C1490   1.275       .  A
O1484      C1491   1.273       .  A
O1485      C1491   1.272       .  A
C1486      C2155   1.482       .  S
C1487      C2107   1.486       .  S
C1488      C2083   1.483       .  S
C1489      C2059   1.485       .  S
C1490      C2131   1.484       .  S
C1491      C2179   1.481       .  S
C1492      H1493   1.110       .  S
C1492      C1498   1.535       .  S
C1492      C1497   1.538       .  S
C1492      C1496   1.542       .  S
C1494      H1495   1.111       .  S
C1494      C1500   1.537       .  S
C1494      C1499   1.539       .  S
C1494      C1501   1.541       .  S
C1496      C1499   1.380       .  D
C1496      C2094   1.498       .  S
C1497      C1500   1.373       .  D
C1497      C2070   1.488       .  S
C1498      C1501   1.377       .  D
C1498      C2118   1.484       .  S
C1499      C2011   1.482       .  S
C1500      C1987   1.482       .  S
C1501      C2035   1.491       .  S
Zn1502     O1506   1.956       .  S
Zn1502     O1507   2.012       .  S
Zn1502     O1511   2.018       .  S
Zn1502     O1518   2.014       .  S
Zn1503     O1506   1.971       .  S
Zn1503     O1508   2.031       .  S
Zn1503     O1510   2.032       .  S
Zn1503     O1514   2.039       .  S
Zn1504     O1506   1.954       .  S
Zn1504     O1509   2.016       .  S
Zn1504     O1512   2.004       .  S
Zn1504     O1515   2.011       .  S
Zn1505     O1506   1.959       .  S
Zn1505     O1513   2.018       .  S
Zn1505     O1516   2.004       .  S
Zn1505     O1517   2.022       .  S
O1507      C1519   1.274       .  A
O1508      C1520   1.275       .  A
O1509      C1521   1.273       .  A
O1510      C1519   1.276       .  A
O1511      C1521   1.273       .  A
O1512      C1520   1.273       .  A
O1513      C1522   1.273       .  A
O1514      C1523   1.277       .  A
O1515      C1522   1.273       .  A
O1516      C1523   1.273       .  A
O1517      C1524   1.274       .  A
O1518      C1524   1.274       .  A
C1519      C2046   1.484       .  S
C1520      C1926   1.483       .  S
C1521      C1950   1.483       .  S
C1522      C1974   1.479       .  S
C1523      C1998   1.484       .  S
C1524      C2022   1.482       .  S
Zn1525     O1529   1.956       .  S
Zn1525     O1530   2.011       .  S
Zn1525     O1534   2.036       .  S
Zn1525     O1541   2.017       .  S
Zn1526     O1529   1.977       .  S
Zn1526     O1531   2.050       .  S
Zn1526     O1533   2.059       .  S
Zn1526     O1537   2.041       .  S
Zn1527     O1529   1.935       .  S
Zn1527     O1532   1.979       .  S
Zn1527     O1535   1.967       .  S
Zn1527     O1538   1.970       .  S
Zn1528     O1529   1.968       .  S
Zn1528     O1536   2.047       .  S
Zn1528     O1539   2.022       .  S
Zn1528     O1540   2.034       .  S
O1530      C1542   1.275       .  A
O1531      C1543   1.276       .  A
O1532      C1544   1.268       .  A
O1533      C1542   1.279       .  A
O1534      C1544   1.275       .  A
O1535      C1543   1.268       .  A
O1536      C1545   1.275       .  A
O1537      C1546   1.279       .  A
O1538      C1545   1.267       .  A
O1539      C1546   1.276       .  A
O1540      C1547   1.277       .  A
O1541      C1547   1.275       .  A
C1542      C1830   1.490       .  S
C1543      C1878   1.480       .  S
C1544      C1843   1.479       .  S
C1545      C1902   1.481       .  S
C1546      C1795   1.488       .  S
C1547      C1782   1.487       .  S
C1548      H1549   1.111       .  S
C1548      C1554   1.538       .  S
C1548      C1553   1.540       .  S
C1548      C1552   1.540       .  S
C1550      H1551   1.111       .  S
C1550      C1556   1.538       .  S
C1550      C1555   1.539       .  S
C1550      C1557   1.544       .  S
C1552      C1555   1.375       .  D
C1552      C1819   1.484       .  S
C1553      C1556   1.376       .  D
C1553      C1806   1.488       .  S
C1554      C1557   1.379       .  D
C1554      C1771   1.494       .  S
C1555      C1758   1.486       .  S
C1556      C1710   1.491       .  S
C1557      C1734   1.486       .  S
Zn1558     O1562   1.965       .  S
Zn1558     O1563   2.027       .  S
Zn1558     O1567   2.018       .  S
Zn1558     O1574   2.021       .  S
Zn1559     O1562   1.945       .  S
Zn1559     O1564   1.983       .  S
Zn1559     O1566   1.987       .  S
Zn1559     O1570   1.998       .  S
Zn1560     O1562   1.970       .  S
Zn1560     O1565   2.029       .  S
Zn1560     O1568   2.042       .  S
Zn1560     O1571   2.030       .  S
Zn1561     O1562   1.958       .  S
Zn1561     O1569   2.018       .  S
Zn1561     O1572   2.027       .  S
Zn1561     O1573   2.023       .  S
O1563      C1575   1.274       .  A
O1564      C1576   1.270       .  A
O1565      C1577   1.276       .  A
O1566      C1575   1.270       .  A
O1567      C1577   1.275       .  A
O1568      C1576   1.275       .  A
O1569      C1578   1.275       .  A
O1570      C1579   1.271       .  A
O1571      C1578   1.276       .  A
O1572      C1579   1.275       .  A
O1573      C1580   1.275       .  A
O1574      C1580   1.275       .  A
C1575      C1675   1.477       .  S
C1576      C1627   1.482       .  S
C1577      C1723   1.481       .  S
C1578      C1747   1.485       .  S
C1579      C1651   1.481       .  S
C1580      C1699   1.486       .  S
Zn1581     O1585   1.962       .  S
Zn1581     O2320   2.014   1_545  S
Zn1581     O1590   2.034       .  S
Zn1581     O1597   2.024       .  S
Zn1582     O1587   2.029       .  S
Zn1582     O1593   2.019       .  S
Zn1583     O1585   1.942   1_554  S
Zn1583     O1588   1.985       .  S
Zn1584     O1592   2.038       .  S
Zn1584     O2329   2.024   1_545  S
O1586     Zn2315   2.014       .  S
O1586      C1598   1.274       .  A
O1587      C1599   1.275   1_556  A
O1588      C1600   1.269       .  A
O1589      C1598   1.275       .  A
O1590      C1600   1.275   1_556  A
O1591      C1599   1.270       .  A
O1592      C1601   1.275   1_556  A
O1593      C1602   1.275       .  A
O1594      C1601   1.270       .  A
O1595     Zn2318   2.024       .  S
O1595      C1602   1.275       .  A
O1596      C1603   1.275       .  A
O1597      C1603   1.275       .  A
C1598      C1963   1.482       .  S
C1599      C1662   1.480       .  S
C1600      C1638   1.480       .  S
C1601      C1686   1.479       .  S
C1602      C1939   1.483       .  S
C1603      C1915   1.483       .  S
Zn1604     O1608   1.932   1_545  S
Zn1604     O1620   1.976       .  S
Zn1605     O2344   2.019   1_545  S
Zn1605     O1612   2.034       .  S
Zn1606     O1611   2.040       .  S
Zn1606     O1614   2.023       .  S
Zn1607     O1608   1.969   1_545  S
Zn1607     O2349   2.017   1_545  S
Zn1607     O1618   2.033       .  S
Zn1607     O1619   2.044       .  S
O1609      C1621   1.269       .  A
O1610     Zn2339   2.019       .  S
O1610      C1622   1.275       .  A
O1611      C1623   1.276       .  A
O1612      C1621   1.274       .  A
O1613      C1623   1.268       .  A
O1614      C1622   1.275       .  A
O1615     Zn2341   2.017       .  S
O1615      C1624   1.275       .  A
O1616      C1625   1.275       .  A
O1617      C1624   1.276       .  A
O1618      C1625   1.277       .  A
O1619      C1626   1.276       .  A
O1620      C1626   1.269       .  A
C1621      C1891   1.478       .  S
C1622      C2166   1.484       .  S
C1623      C1867   1.478       .  S
C1624      C2190   1.483       .  S
C1625      C2142   1.483       .  S
C1626      C1854   1.481       .  S
C1627      C1628   1.405       .  A
C1627      C1632   1.407       .  A
C1628      C1629   1.401       .  A
C1628      H1641   1.083       .  S
C1629      C1630   1.405       .  A
C1629      H1642   1.084       .  S
C1630      C1633   1.483       .  S
C1630      C1631   1.405       .  A
C1631      C1632   1.393       .  A
C1631      H1643   1.081       .  S
C1632      H1644   1.083       .  S
C1633      C1634   1.349       .  D
C1633      H1645   1.084       .  S
C1634      C1635   1.485       .  S
C1634      H1646   1.085       .  S
C1635      C1636   1.405       .  A
C1635      C1640   1.406       .  A
C1636      C1637   1.398       .  A
C1636      H1647   1.084       .  S
C1637      C1638   1.404       .  A
C1637      H1648   1.083       .  S
C1638      C1639   1.407       .  A
C1639      C1640   1.395       .  A
C1639      H1649   1.084       .  S
C1640      H1650   1.080       .  S
C1651      C1652   1.407       .  A
C1651      C1656   1.404       .  A
C1652      C1653   1.398       .  A
C1652      H1665   1.083       .  S
C1653      C1654   1.403       .  A
C1653      H1666   1.083       .  S
C1654      C1657   1.487       .  S
C1654      C1655   1.409       .  A
C1655      C1656   1.397       .  A
C1655      H1667   1.081       .  S
C1656      H1668   1.083       .  S
C1657      C1658   1.348       .  D
C1657      H1669   1.083       .  S
C1658      C1659   1.487       .  S
C1658      H1670   1.084       .  S
C1659      C1660   1.403       .  A
C1659      C1664   1.409       .  A
C1660      C1661   1.395       .  A
C1660      H1671   1.083       .  S
C1661      C1662   1.406       .  A
C1661      H1672   1.083       .  S
C1662      C1663   1.404       .  A
C1663      C1664   1.399       .  A
C1663      H1673   1.083       .  S
C1664      H1674   1.080       .  S
C1675      C1676   1.404       .  A
C1675      C1680   1.406       .  A
C1676      C1677   1.398       .  A
C1676      H1689   1.083       .  S
C1677      C1678   1.404       .  A
C1677      H1690   1.084       .  S
C1678      C1681   1.480       .  S
C1678      C1679   1.404       .  A
C1679      C1680   1.394       .  A
C1679      H1691   1.081       .  S
C1680      H1692   1.084       .  S
C1681      C1682   1.349       .  D
C1681      H1693   1.084       .  S
C1682      C1683   1.485       .  S
C1682      H1694   1.086       .  S
C1683      C1684   1.405       .  A
C1683      C1688   1.406       .  A
C1684      C1685   1.401       .  A
C1684      H1695   1.084       .  S
C1685      C1686   1.405       .  A
C1685      H1696   1.083       .  S
C1686      C1687   1.406       .  A
C1687      C1688   1.392       .  A
C1687      H1697   1.084       .  S
C1688      H1698   1.080       .  S
C1699      C1700   1.406       .  A
C1699      C1704   1.406       .  A
C1700      C1701   1.399       .  A
C1700      H1713   1.083       .  S
C1701      C1702   1.404       .  A
C1701      H1714   1.084       .  S
C1702      C1703   1.409       .  A
C1703      C1704   1.399       .  A
C1703      H1715   1.082       .  S
C1704      H1716   1.084       .  S
C1705      C1706   1.349       .  D
C1705      H1717   1.086       .  S
C1706      C1707   1.491       .  S
C1706      H1718   1.085       .  S
C1707      C1708   1.403       .  A
C1707      C1712   1.410       .  A
C1708      C1709   1.397       .  A
C1708      H1719   1.084       .  S
C1709      C1710   1.405       .  A
C1709      H1720   1.083       .  S
C1710      C1711   1.401       .  A
C1711      C1712   1.402       .  A
C1711      H1721   1.082       .  S
C1712      H1722   1.080       .  S
C1723      C1724   1.406       .  A
C1723      C1728   1.405       .  A
C1724      C1725   1.399       .  A
C1724      H1737   1.084       .  S
C1725      C1726   1.403       .  A
C1725      H1738   1.083       .  S
C1726      C2463   1.486   1_545  S
C1726      C1727   1.407       .  A
C1727      C1728   1.399       .  A
C1727      H1739   1.082       .  S
C1728      H1740   1.083       .  S
C1729      C1730   1.349       .  D
C1729      C2460   1.486       .  S
C1729      H1741   1.084       .  S
C1730      C1731   1.490       .  S
C1730      H1742   1.087       .  S
C1731      C1732   1.406       .  A
C1731      C1736   1.409       .  A
C1732      C1733   1.399       .  A
C1732      H1743   1.083       .  S
C1733      C1734   1.400       .  A
C1733      H1744   1.081       .  S
C1734      C1735   1.405       .  A
C1735      C1736   1.399       .  A
C1735      H1745   1.082       .  S
C1736      H1746   1.081       .  S
C1747      C1748   1.406       .  A
C1747      C1752   1.406       .  A
C1748      C1749   1.397       .  A
C1748      H1761   1.083       .  S
C1749      C1750   1.404       .  A
C1749      H1762   1.083       .  S
C1750      C1753   1.491       .  S
C1750      C1751   1.409       .  A
C1751      C1752   1.401       .  A
C1751      H1763   1.081       .  S
C1752      H1764   1.083       .  S
C1753      C1754   1.350       .  D
C1753      H1765   1.084       .  S
C1754      C1755   1.492       .  S
C1754      H1766   1.084       .  S
C1755      C1756   1.406       .  A
C1755      C1760   1.409       .  A
C1756      C1757   1.400       .  A
C1756      H1767   1.083       .  S
C1757      C1758   1.401       .  A
C1757      H1768   1.083       .  S
C1758      C1759   1.404       .  A
C1759      C1760   1.399       .  A
C1759      H1769   1.082       .  S
C1760      H1770   1.081       .  S
C1771      C1772   1.401       .  A
C1771      C1776   1.408       .  A
C1772      C1773   1.397       .  A
C1772      H1785   1.079       .  S
C1773      C1774   1.404       .  A
C1773      H1786   1.084       .  S
C1774      C1777   1.490       .  S
C1774      C1775   1.409       .  A
C1775      C1776   1.402       .  A
C1775      H1787   1.081       .  S
C1776      H1788   1.083       .  S
C1777      C1778   1.348       .  D
C1777      H1789   1.086       .  S
C1778      C2513   1.490       .  S
C1778      H1790   1.085       .  S
C1779      C2512   1.490   1_545  S
C1779      C1780   1.403       .  A
C1779      C1784   1.409       .  A
C1780      C1781   1.400       .  A
C1780      H1791   1.084       .  S
C1781      C1782   1.408       .  A
C1781      H1792   1.083       .  S
C1782      C1783   1.406       .  A
C1783      C1784   1.400       .  A
C1783      H1793   1.083       .  S
C1784      H2528   1.081       .  S
H1794      C2518   1.081       .  S
C1795      C1796   1.407       .  A
C1795      C1800   1.406       .  A
C1796      C1797   1.400       .  A
C1796      H1809   1.083       .  S
C1797      C1798   1.404       .  A
C1797      H1810   1.083       .  S
C1798      C1799   1.410       .  A
C1799      C1800   1.401       .  A
C1799      H1811   1.081       .  S
C1800      H1812   1.083       .  S
C1801      C1802   1.348       .  D
C1801      H1813   1.086       .  S
C1802      C1803   1.489       .  S
C1802      H1814   1.085       .  S
C1803      C1804   1.403       .  A
C1803      C1808   1.411       .  A
C1804      C1805   1.395       .  A
C1804      H1815   1.083       .  S
C1805      C1806   1.404       .  A
C1805      H1816   1.083       .  S
C1806      C1807   1.403       .  A
C1807      C1808   1.405       .  A
C1807      H1817   1.083       .  S
C1808      H1818   1.082       .  S
C1819      C1820   1.401       .  A
C1819      C1824   1.402       .  A
C1820      C1821   1.400       .  A
C1820      H1833   1.080       .  S
C1821      C1822   1.406       .  A
C1821      H1834   1.083       .  S
C1822      C1825   1.497       .  S
C1822      C1823   1.413       .  A
C1823      C1824   1.402       .  A
C1823      H1835   1.079       .  S
C1824      H1836   1.083       .  S
C1825      C1826   1.350       .  D
C1825      H1837   1.085       .  S
C1826      C1827   1.493       .  S
C1826      H1838   1.083       .  S
C1827      C1828   1.403       .  A
C1827      C1832   1.411       .  A
C1828      C1829   1.397       .  A
C1828      H1839   1.084       .  S
C1829      C1830   1.407       .  A
C1829      H1840   1.083       .  S
C1830      C1831   1.407       .  A
C1831      C1832   1.405       .  A
C1831      H1841   1.083       .  S
C1832      H1842   1.081       .  S
C1843      C1844   1.407       .  A
C1843      C1848   1.403       .  A
C1844      C1845   1.395       .  A
C1844      H1857   1.084       .  S
C1845      C1846   1.401       .  A
C1845      H1858   1.083       .  S
C1846      C1849   1.485       .  S
C1846      C1847   1.410       .  A
C1847      C1848   1.398       .  A
C1847      H1859   1.081       .  S
C1848      H1860   1.082       .  S
C1849      C1850   1.344       .  D
C1849      H1861   1.085       .  S
C1850      C1851   1.482       .  S
C1850      H1862   1.084       .  S
C1851      C1852   1.399       .  A
C1851      C1856   1.409       .  A
C1852      C1853   1.392       .  A
C1852      H1863   1.083       .  S
C1853      C1854   1.407       .  A
C1853      H1864   1.083       .  S
C1854      C1855   1.405       .  A
C1855      C1856   1.402       .  A
C1855      H1865   1.082       .  S
C1856      H1866   1.082       .  S
C1867      C1868   1.407       .  A
C1867      C1872   1.403       .  A
C1868      C1869   1.394       .  A
C1868      H1881   1.083       .  S
C1869      C1870   1.400       .  A
C1869      H1882   1.083       .  S
C1870      C1873   1.481       .  S
C1870      C1871   1.409       .  A
C1871      C1872   1.398       .  A
C1871      H1883   1.082       .  S
C1872      H1884   1.083       .  S
C1873      C1874   1.343       .  D
C1873      H1885   1.086       .  S
C1874      C1875   1.478       .  S
C1874      H1886   1.085       .  S
C1875      C1876   1.398       .  A
C1875      C1880   1.408       .  A
C1876      C1877   1.392       .  A
C1876      H1887   1.084       .  S
C1877      C1878   1.408       .  A
C1877      H1888   1.083       .  S
C1878      C1879   1.404       .  A
C1879      C1880   1.400       .  A
C1879      H1889   1.082       .  S
C1880      H1890   1.082       .  S
C1891      C1892   1.404       .  A
C1891      C1896   1.406       .  A
C1892      C1893   1.399       .  A
C1892      H1905   1.082       .  S
C1893      C1894   1.405       .  A
C1893      H1906   1.084       .  S
C1894      C1897   1.482       .  S
C1894      C1895   1.405       .  A
C1895      C1896   1.392       .  A
C1895      H1907   1.081       .  S
C1896      H1908   1.083       .  S
C1897      C1898   1.349       .  D
C1897      H1909   1.085       .  S
C1898      C1899   1.483       .  S
C1898      H1910   1.085       .  S
C1899      C1900   1.405       .  A
C1899      C1904   1.404       .  A
C1900      C1901   1.400       .  A
C1900      H1911   1.084       .  S
C1901      C1902   1.404       .  A
C1901      H1912   1.083       .  S
C1902      C1903   1.407       .  A
C1903      C1904   1.393       .  A
C1903      H1913   1.083       .  S
C1904      H1914   1.081       .  S
C1915      C1916   1.406       .  A
C1915      C1920   1.407       .  A
C1916      C1917   1.397       .  A
C1916      H1929   1.083       .  S
C1917      C1918   1.402       .  A
C1917      H1930   1.083       .  S
C1918      C1921   1.484       .  S
C1918      C1919   1.406       .  A
C1919      C1920   1.401       .  A
C1919      H1931   1.082       .  S
C1920      H1932   1.083       .  S
C1921      C1922   1.347       .  D
C1921      H1933   1.086       .  S
C1922      C1923   1.485       .  S
C1922      H1934   1.086       .  S
C1923      C1924   1.404       .  A
C1923      C1928   1.405       .  A
C1924      C1925   1.401       .  A
C1924      H1935   1.084       .  S
C1925      C1926   1.407       .  A
C1925      H1936   1.083       .  S
C1926      C1927   1.406       .  A
C1927      C1928   1.396       .  A
C1927      H1937   1.083       .  S
C1928      H1938   1.082       .  S
C1939      C1940   1.406       .  A
C1939      C1944   1.407       .  A
C1940      C1941   1.398       .  A
C1940      H1953   1.083       .  S
C1941      C1942   1.402       .  A
C1941      H1954   1.083       .  S
C1942      C1945   1.484       .  S
C1942      C1943   1.406       .  A
C1943      C1944   1.399       .  A
C1943      H1955   1.082       .  S
C1944      H1956   1.083       .  S
C1945      C1946   1.347       .  D
C1945      H1957   1.086       .  S
C1946      C1947   1.486       .  S
C1946      H1958   1.086       .  S
C1947      C1948   1.403       .  A
C1947      C1952   1.406       .  A
C1948      C1949   1.400       .  A
C1948      H1959   1.084       .  S
C1949      C1950   1.407       .  A
C1949      H1960   1.083       .  S
C1950      C1951   1.405       .  A
C1951      C1952   1.397       .  A
C1951      H1961   1.083       .  S
C1952      H1962   1.082       .  S
C1963      C1964   1.406       .  A
C1963      C1968   1.406       .  A
C1964      C1965   1.397       .  A
C1964      H1977   1.083       .  S
C1965      C1966   1.402       .  A
C1965      H1978   1.084       .  S
C1966      C1969   1.484       .  S
C1966      C1967   1.407       .  A
C1967      C1968   1.399       .  A
C1967      H1979   1.082       .  S
C1968      H1980   1.083       .  S
C1969      C1970   1.347       .  D
C1969      H1981   1.085       .  S
C1970      C1971   1.486       .  S
C1970      H1982   1.086       .  S
C1971      C1972   1.404       .  A
C1971      C1976   1.407       .  A
C1972      C1973   1.399       .  A
C1972      H1983   1.084       .  S
C1973      C1974   1.405       .  A
C1973      H1984   1.083       .  S
C1974      C1975   1.405       .  A
C1975      C1976   1.397       .  A
C1975      H1985   1.083       .  S
C1976      H1986   1.082       .  S
C1987      C1988   1.404       .  A
C1987      C1992   1.400       .  A
C1988      C1989   1.396       .  A
C1988      H2001   1.083       .  S
C1989      C1990   1.403       .  A
C1989      H2002   1.083       .  S
C1990      C1993   1.488       .  S
C1990      C1991   1.411       .  A
C1991      C1992   1.400       .  A
C1991      H2003   1.081       .  S
C1992      H2004   1.083       .  S
C1993      C1994   1.347       .  D
C1993      H2005   1.084       .  S
C1994      H2006   1.085       .  S
C1995      C1996   1.403       .  A
C1995      C2000   1.410       .  A
C1996      C1997   1.396       .  A
C1996      H2007   1.084       .  S
C1997      C1998   1.406       .  A
C1997      H2008   1.083       .  S
C1998      C1999   1.406       .  A
C1999      C2000   1.401       .  A
C1999      H2009   1.083       .  S
C2000      H2010   1.081       .  S
C2011      C2012   1.403       .  A
C2011      C2016   1.401       .  A
C2012      C2013   1.397       .  A
C2012      H2025   1.083       .  S
C2013      C2014   1.404       .  A
C2013      H2026   1.084       .  S
C2014      C2017   1.486       .  S
C2014      C2015   1.409       .  A
C2015      C2016   1.399       .  A
C2015      H2027   1.081       .  S
C2016      H2028   1.080       .  S
C2017      C2018   1.348       .  D
C2017      H2029   1.084       .  S
C2018      C2753   1.488   1_545  S
C2018      H2030   1.085       .  S
C2019      C2752   1.488       .  S
C2019      C2020   1.404       .  A
C2019      C2024   1.408       .  A
C2020      C2021   1.399       .  A
C2020      H2031   1.084       .  S
C2021      C2022   1.405       .  A
C2021      H2032   1.083       .  S
C2022      C2023   1.406       .  A
C2023      C2024   1.397       .  A
C2023      H2033   1.083       .  S
C2024      H2034   1.081       .  S
C2035      C2036   1.400       .  A
C2035      C2040   1.405       .  A
C2036      C2037   1.399       .  A
C2036      H2049   1.080       .  S
C2037      C2038   1.406       .  A
C2037      H2050   1.083       .  S
C2038      C2041   1.495       .  S
C2038      C2039   1.410       .  A
C2039      C2040   1.399       .  A
C2039      H2051   1.079       .  S
C2040      H2052   1.083       .  S
C2041      C2042   1.350       .  D
C2041      H2053   1.085       .  S
C2042      C2043   1.489       .  S
C2042      H2054   1.082       .  S
C2043      C2044   1.403       .  A
C2043      C2048   1.408       .  A
C2044      C2045   1.398       .  A
C2044      H2055   1.083       .  S
C2045      C2046   1.406       .  A
C2045      H2056   1.083       .  S
C2046      C2047   1.406       .  A
C2047      C2048   1.400       .  A
C2047      H2057   1.083       .  S
C2048      H2058   1.081       .  S
C2059      C2060   1.407       .  A
C2059      C2064   1.406       .  A
C2060      C2061   1.402       .  A
C2060      H2073   1.083       .  S
C2061      C2062   1.406       .  A
C2061      H2074   1.084       .  S
C2062      C2063   1.407       .  A
C2063      C2064   1.395       .  A
C2063      H2075   1.081       .  S
C2064      H2076   1.083       .  S
C2065      C2066   1.349       .  D
C2065      H2077   1.085       .  S
C2066      C2067   1.487       .  S
C2066      H2078   1.085       .  S
C2067      C2068   1.404       .  A
C2067      C2072   1.408       .  A
C2068      C2069   1.397       .  A
C2068      H2079   1.084       .  S
C2069      C2070   1.400       .  A
C2069      H2080   1.077       .  S
C2070      C2071   1.405       .  A
C2071      C2072   1.400       .  A
C2071      H2081   1.083       .  S
C2072      H2082   1.081       .  S
C2083      C2084   1.404       .  A
C2083      C2088   1.407       .  A
C2084      C2085   1.399       .  A
C2084      H2097   1.083       .  S
C2085      C2086   1.406       .  A
C2085      H2098   1.084       .  S
C2086      C2823   1.492       .  S
C2086      C2087   1.409       .  A
C2087      C2088   1.397       .  A
C2087      H2099   1.079       .  S
C2088      H2100   1.083       .  S
C2089      C2090   1.349       .  D
C2089      C2820   1.492   1_545  S
C2089      H2101   1.085       .  S
C2090      C2091   1.488       .  S
C2090      H2102   1.083       .  S
C2091      C2092   1.402       .  A
C2091      C2096   1.407       .  A
C2092      C2093   1.397       .  A
C2092      H2103   1.083       .  S
C2093      C2094   1.404       .  A
C2093      H2104   1.076       .  S
C2094      C2095   1.408       .  A
C2095      C2096   1.399       .  A
C2095      H2105   1.081       .  S
C2096      H2106   1.081       .  S
C2107      C2108   1.406       .  A
C2107      C2112   1.407       .  A
C2108      C2109   1.402       .  A
C2108      H2121   1.083       .  S
C2109      C2110   1.405       .  A
C2109      H2122   1.083       .  S
C2110      C2113   1.488       .  S
C2110      C2111   1.406       .  A
C2111      C2112   1.397       .  A
C2111      H2123   1.082       .  S
C2112      H2124   1.083       .  S
C2113      C2114   1.349       .  D
C2113      H2125   1.085       .  S
C2114      C2115   1.486       .  S
C2114      H2126   1.085       .  S
C2115      C2116   1.405       .  A
C2115      C2120   1.407       .  A
C2116      C2117   1.398       .  A
C2116      H2127   1.084       .  S
C2117      C2118   1.401       .  A
C2117      H2128   1.083       .  S
C2118      C2119   1.405       .  A
C2119      C2120   1.398       .  A
C2119      H2129   1.084       .  S
C2120      H2130   1.082       .  S
C2131      C2132   1.406       .  A
C2131      C2136   1.406       .  A
C2132      C2133   1.398       .  A
C2132      H2145   1.083       .  S
C2133      C2134   1.403       .  A
C2133      H2146   1.084       .  S
C2134      C2137   1.489       .  S
C2134      C2135   1.409       .  A
C2135      C2136   1.400       .  A
C2135      H2147   1.081       .  S
C2136      H2148   1.083       .  S
C2137      C2138   1.348       .  D
C2137      H2149   1.085       .  S
C2138      C2139   1.489       .  S
C2138      H2150   1.084       .  S
C2139      C2140   1.403       .  A
C2139      C2144   1.409       .  A
C2140      C2141   1.397       .  A
C2140      H2151   1.084       .  S
C2141      C2142   1.406       .  A
C2142      C2143   1.406       .  A
C2143      C2144   1.401       .  A
C2143      H2153   1.083       .  S
C2144      H2154   1.081       .  S
C2155      C2156   1.405       .  A
C2155      C2160   1.406       .  A
C2156      C2157   1.397       .  A
C2156      H2169   1.083       .  S
C2157      C2158   1.404       .  A
C2157      H2170   1.083       .  S
C2158      C2161   1.488       .  S
C2158      C2159   1.408       .  A
C2159      C2160   1.400       .  A
C2159      H2171   1.081       .  S
C2160      H2172   1.082       .  S
C2161      C2162   1.349       .  D
C2161      H2173   1.084       .  S
C2162      C2163   1.490       .  S
C2162      H2174   1.084       .  S
C2163      C2164   1.404       .  A
C2163      C2168   1.409       .  A
C2164      C2165   1.399       .  A
C2164      H2175   1.083       .  S
C2165      C2166   1.406       .  A
C2165      H2176   1.083       .  S
C2166      C2167   1.406       .  A
C2167      C2168   1.398       .  A
C2167      H2177   1.082       .  S
C2168      H2178   1.081       .  S
C2179      C2180   1.406       .  A
C2179      C2184   1.406       .  A
C2180      C2181   1.397       .  A
C2180      H2193   1.083       .  S
C2181      C2182   1.402       .  A
C2181      H2194   1.083       .  S
C2182      C2185   1.485       .  S
C2182      C2183   1.408       .  A
C2183      C2184   1.398       .  A
C2183      H2195   1.082       .  S
C2184      H2196   1.083       .  S
C2185      C2186   1.347       .  D
C2185      H2197   1.084       .  S
C2186      C2187   1.487       .  S
C2186      H2198   1.085       .  S
C2187      C2188   1.403       .  A
C2187      C2192   1.408       .  A
C2188      C2189   1.397       .  A
C2188      H2199   1.084       .  S
C2189      C2190   1.406       .  A
C2189      H2200   1.083       .  S
C2190      C2191   1.406       .  A
C2191      C2192   1.399       .  A
C2191      H2201   1.083       .  S
C2192      H2202   1.081       .  S
Zn2203     O2207   1.956       .  S
Zn2203     O2208   2.011       .  S
Zn2203     O2212   1.999       .  S
Zn2203     O2219   2.011       .  S
Zn2204     O2207   1.955       .  S
Zn2204     O2209   2.005       .  S
Zn2204     O2211   2.019       .  S
Zn2204     O2215   2.012       .  S
Zn2205     O2207   1.976       .  S
Zn2205     O2210   2.038       .  S
Zn2205     O2213   2.046       .  S
Zn2205     O2216   2.037       .  S
Zn2206     O2207   1.956       .  S
Zn2206     O2214   2.007       .  S
Zn2206     O2217   2.026       .  S
Zn2206     O2218   2.013       .  S
O2208      C2220   1.273       .  A
O2209      C2221   1.274       .  A
O2210      C2222   1.277       .  A
O2211      C2220   1.274       .  A
O2212      C2222   1.272       .  A
O2213      C2221   1.278       .  A
O2214      C2223   1.274       .  A
O2215      C2224   1.273       .  A
O2216      C2223   1.276       .  A
O2217      C2224   1.275       .  A
O2218      C2225   1.273       .  A
O2219      C2225   1.272       .  A
C2220      C2889   1.482       .  S
C2221      C2841   1.486       .  S
C2222      C2817   1.483       .  S
C2223      C2793   1.485       .  S
C2224      C2865   1.484       .  S
C2225      C2913   1.481       .  S
C2226      H2227   1.110       .  S
C2226      C2232   1.535       .  S
C2226      C2231   1.538       .  S
C2226      C2230   1.542       .  S
C2228      H2229   1.111       .  S
C2228      C2234   1.537       .  S
C2228      C2233   1.539       .  S
C2228      C2235   1.541       .  S
C2230      C2233   1.380       .  D
C2230      C2828   1.498       .  S
C2231      C2234   1.373       .  D
C2231      C2804   1.488       .  S
C2232      C2235   1.377       .  D
C2232      C2852   1.484       .  S
C2233      C2745   1.482       .  S
C2234      C2721   1.482       .  S
C2235      C2769   1.491       .  S
Zn2236     O2240   1.956       .  S
Zn2236     O2241   2.012       .  S
Zn2236     O2245   2.018       .  S
Zn2236     O2252   2.014       .  S
Zn2237     O2240   1.971       .  S
Zn2237     O2242   2.031       .  S
Zn2237     O2244   2.032       .  S
Zn2237     O2248   2.039       .  S
Zn2238     O2240   1.954       .  S
Zn2238     O2243   2.016       .  S
Zn2238     O2246   2.004       .  S
Zn2238     O2249   2.011       .  S
Zn2239     O2240   1.959       .  S
Zn2239     O2247   2.018       .  S
Zn2239     O2250   2.004       .  S
Zn2239     O2251   2.022       .  S
O2241      C2253   1.274       .  A
O2242      C2254   1.275       .  A
O2243      C2255   1.273       .  A
O2244      C2253   1.276       .  A
O2245      C2255   1.273       .  A
O2246      C2254   1.273       .  A
O2247      C2256   1.273       .  A
O2248      C2257   1.277       .  A
O2249      C2256   1.273       .  A
O2250      C2257   1.273       .  A
O2251      C2258   1.274       .  A
O2252      C2258   1.274       .  A
C2253      C2780   1.484       .  S
C2254      C2660   1.483       .  S
C2255      C2684   1.483       .  S
C2256      C2708   1.479       .  S
C2257      C2732   1.484       .  S
C2258      C2756   1.482       .  S
Zn2259     O2263   1.956       .  S
Zn2259     O2264   2.011       .  S
Zn2259     O2268   2.036       .  S
Zn2259     O2275   2.017       .  S
Zn2260     O2263   1.977       .  S
Zn2260     O2265   2.050       .  S
Zn2260     O2267   2.059       .  S
Zn2260     O2271   2.041       .  S
Zn2261     O2263   1.935       .  S
Zn2261     O2266   1.979       .  S
Zn2261     O2269   1.967       .  S
Zn2261     O2272   1.970       .  S
Zn2262     O2263   1.968       .  S
Zn2262     O2270   2.047       .  S
Zn2262     O2273   2.022       .  S
Zn2262     O2274   2.034       .  S
O2264      C2276   1.275       .  A
O2265      C2277   1.276       .  A
O2266      C2278   1.268       .  A
O2267      C2276   1.279       .  A
O2268      C2278   1.275       .  A
O2269      C2277   1.268       .  A
O2270      C2279   1.275       .  A
O2271      C2280   1.279       .  A
O2272      C2279   1.267       .  A
O2273      C2280   1.276       .  A
O2274      C2281   1.277       .  A
O2275      C2281   1.275       .  A
C2276      C2564   1.490       .  S
C2277      C2612   1.480       .  S
C2278      C2577   1.479       .  S
C2279      C2636   1.481       .  S
C2280      C2529   1.488       .  S
C2281      C2516   1.487       .  S
C2282      H2283   1.111       .  S
C2282      C2288   1.538       .  S
C2282      C2287   1.540       .  S
C2282      C2286   1.540       .  S
C2284      H2285   1.111       .  S
C2284      C2290   1.538       .  S
C2284      C2289   1.539       .  S
C2284      C2291   1.544       .  S
C2286      C2289   1.375       .  D
C2286      C2553   1.484       .  S
C2287      C2290   1.376       .  D
C2287      C2540   1.488       .  S
C2288      C2291   1.379       .  D
C2288      C2505   1.494       .  S
C2289      C2492   1.486       .  S
C2290      C2444   1.491       .  S
C2291      C2468   1.486       .  S
Zn2292     O2296   1.965       .  S
Zn2292     O2297   2.027       .  S
Zn2292     O2301   2.018       .  S
Zn2292     O2308   2.021       .  S
Zn2293     O2296   1.945       .  S
Zn2293     O2298   1.983       .  S
Zn2293     O2300   1.986       .  S
Zn2293     O2304   1.998       .  S
Zn2294     O2296   1.970       .  S
Zn2294     O2299   2.029       .  S
Zn2294     O2302   2.042       .  S
Zn2294     O2305   2.030       .  S
Zn2295     O2296   1.958       .  S
Zn2295     O2303   2.018       .  S
Zn2295     O2306   2.027       .  S
Zn2295     O2307   2.023       .  S
O2297      C2309   1.274       .  A
O2298      C2310   1.270       .  A
O2299      C2311   1.276       .  A
O2300      C2309   1.270       .  A
O2301      C2311   1.275       .  A
O2302      C2310   1.275       .  A
O2303      C2312   1.275       .  A
O2304      C2313   1.271       .  A
O2305      C2312   1.276       .  A
O2306      C2313   1.275       .  A
O2307      C2314   1.275       .  A
O2308      C2314   1.275       .  A
C2309      C2409   1.477       .  S
C2310      C2361   1.482       .  S
C2311      C2457   1.481       .  S
C2312      C2481   1.485       .  S
C2313      C2385   1.481       .  S
C2314      C2433   1.486       .  S
Zn2315     O2319   1.962       .  S
Zn2315     O2324   2.034       .  S
Zn2315     O2331   2.024       .  S
Zn2316     O2321   2.029       .  S
Zn2316     O2327   2.019       .  S
Zn2317     O2319   1.942   1_554  S
Zn2317     O2322   1.984       .  S
Zn2318     O2326   2.038       .  S
O2320      C2332   1.274       .  A
O2321      C2333   1.275   1_556  A
O2322      C2334   1.269       .  A
O2323      C2332   1.275       .  A
O2324      C2334   1.275   1_556  A
O2325      C2333   1.270       .  A
O2326      C2335   1.275   1_556  A
O2327      C2336   1.275       .  A
O2328      C2335   1.270       .  A
O2329      C2336   1.275       .  A
O2330      C2337   1.275       .  A
O2331      C2337   1.275       .  A
C2332      C2697   1.482       .  S
C2333      C2396   1.480       .  S
C2334      C2372   1.480       .  S
C2335      C2420   1.479       .  S
C2336      C2673   1.483       .  S
C2337      C2649   1.483       .  S
Zn2338     O2342   1.932       .  S
Zn2338     O2354   1.976       .  S
Zn2339     O2346   2.034       .  S
Zn2340     O2345   2.040       .  S
Zn2340     O2348   2.023       .  S
Zn2341     O2342   1.969       .  S
Zn2341     O2352   2.033       .  S
Zn2341     O2353   2.044       .  S
O2343      C2355   1.269       .  A
O2344      C2356   1.275       .  A
O2345      C2357   1.276       .  A
O2346      C2355   1.274       .  A
O2347      C2357   1.268       .  A
O2348      C2356   1.275       .  A
O2349      C2358   1.275       .  A
O2350      C2359   1.275       .  A
O2351      C2358   1.276       .  A
O2352      C2359   1.277       .  A
O2353      C2360   1.276       .  A
O2354      C2360   1.269       .  A
C2355      C2625   1.478       .  S
C2356      C2900   1.484       .  S
C2357      C2601   1.478       .  S
C2358      C2924   1.483       .  S
C2359      C2876   1.483       .  S
C2360      C2588   1.481       .  S
C2361      C2362   1.405       .  A
C2361      C2366   1.407       .  A
C2362      C2363   1.401       .  A
C2362      H2375   1.083       .  S
C2363      C2364   1.405       .  A
C2363      H2376   1.084       .  S
C2364      C2367   1.483       .  S
C2364      C2365   1.405       .  A
C2365      C2366   1.393       .  A
C2365      H2377   1.081       .  S
C2366      H2378   1.083       .  S
C2367      C2368   1.349       .  D
C2367      H2379   1.084       .  S
C2368      C2369   1.485       .  S
C2368      H2380   1.085       .  S
C2369      C2370   1.405       .  A
C2369      C2374   1.406       .  A
C2370      C2371   1.398       .  A
C2370      H2381   1.084       .  S
C2371      C2372   1.404       .  A
C2371      H2382   1.083       .  S
C2372      C2373   1.407       .  A
C2373      C2374   1.395       .  A
C2373      H2383   1.084       .  S
C2374      H2384   1.080       .  S
C2385      C2386   1.407       .  A
C2385      C2390   1.404       .  A
C2386      C2387   1.398       .  A
C2386      H2399   1.083       .  S
C2387      C2388   1.403       .  A
C2387      H2400   1.083       .  S
C2388      C2391   1.487       .  S
C2388      C2389   1.409       .  A
C2389      C2390   1.397       .  A
C2389      H2401   1.081       .  S
C2390      H2402   1.083       .  S
C2391      C2392   1.348       .  D
C2391      H2403   1.083       .  S
C2392      C2393   1.487       .  S
C2392      H2404   1.084       .  S
C2393      C2394   1.403       .  A
C2393      C2398   1.409       .  A
C2394      C2395   1.395       .  A
C2394      H2405   1.083       .  S
C2395      C2396   1.406       .  A
C2395      H2406   1.083       .  S
C2396      C2397   1.404       .  A
C2397      C2398   1.399       .  A
C2397      H2407   1.083       .  S
C2398      H2408   1.080       .  S
C2409      C2410   1.404       .  A
C2409      C2414   1.406       .  A
C2410      C2411   1.398       .  A
C2410      H2423   1.083       .  S
C2411      C2412   1.404       .  A
C2411      H2424   1.084       .  S
C2412      C2415   1.480       .  S
C2412      C2413   1.404       .  A
C2413      C2414   1.394       .  A
C2413      H2425   1.081       .  S
C2414      H2426   1.084       .  S
C2415      C2416   1.349       .  D
C2415      H2427   1.084       .  S
C2416      C2417   1.485       .  S
C2416      H2428   1.086       .  S
C2417      C2418   1.405       .  A
C2417      C2422   1.406       .  A
C2418      C2419   1.401       .  A
C2418      H2429   1.084       .  S
C2419      C2420   1.405       .  A
C2419      H2430   1.083       .  S
C2420      C2421   1.406       .  A
C2421      C2422   1.392       .  A
C2421      H2431   1.084       .  S
C2422      H2432   1.080       .  S
C2433      C2434   1.406       .  A
C2433      C2438   1.406       .  A
C2434      C2435   1.399       .  A
C2434      H2447   1.083       .  S
C2435      C2436   1.404       .  A
C2435      H2448   1.084       .  S
C2436      C2437   1.409       .  A
C2437      C2438   1.399       .  A
C2437      H2449   1.082       .  S
C2438      H2450   1.083       .  S
C2439      C2440   1.349       .  D
C2439      H2451   1.086       .  S
C2440      C2441   1.491       .  S
C2440      H2452   1.085       .  S
C2441      C2442   1.403       .  A
C2441      C2446   1.410       .  A
C2442      C2443   1.397       .  A
C2442      H2453   1.084       .  S
C2443      C2444   1.405       .  A
C2443      H2454   1.083       .  S
C2444      C2445   1.401       .  A
C2445      C2446   1.402       .  A
C2445      H2455   1.082       .  S
C2446      H2456   1.080       .  S
C2457      C2458   1.406       .  A
C2457      C2462   1.405       .  A
C2458      C2459   1.399       .  A
C2458      H2471   1.084       .  S
C2459      C2460   1.403       .  A
C2459      H2472   1.083       .  S
C2460      C2461   1.407       .  A
C2461      C2462   1.399       .  A
C2461      H2473   1.082       .  S
C2462      H2474   1.083       .  S
C2463      C2464   1.349       .  D
C2463      H2475   1.084       .  S
C2464      C2465   1.490       .  S
C2464      H2476   1.087       .  S
C2465      C2466   1.406       .  A
C2465      C2470   1.409       .  A
C2466      C2467   1.399       .  A
C2466      H2477   1.083       .  S
C2467      C2468   1.400       .  A
C2467      H2478   1.081       .  S
C2468      C2469   1.405       .  A
C2469      C2470   1.399       .  A
C2469      H2479   1.082       .  S
C2470      H2480   1.081       .  S
C2481      C2482   1.406       .  A
C2481      C2486   1.406       .  A
C2482      C2483   1.397       .  A
C2482      H2495   1.083       .  S
C2483      C2484   1.404       .  A
C2483      H2496   1.083       .  S
C2484      C2487   1.491       .  S
C2484      C2485   1.409       .  A
C2485      C2486   1.401       .  A
C2485      H2497   1.081       .  S
C2486      H2498   1.083       .  S
C2487      C2488   1.350       .  D
C2487      H2499   1.084       .  S
C2488      C2489   1.492       .  S
C2488      H2500   1.084       .  S
C2489      C2490   1.406       .  A
C2489      C2494   1.409       .  A
C2490      C2491   1.400       .  A
C2490      H2501   1.083       .  S
C2491      C2492   1.401       .  A
C2491      H2502   1.083       .  S
C2492      C2493   1.404       .  A
C2493      C2494   1.399       .  A
C2493      H2503   1.082       .  S
C2494      H2504   1.081       .  S
C2505      C2506   1.401       .  A
C2505      C2510   1.408       .  A
C2506      C2507   1.397       .  A
C2506      H2519   1.079       .  S
C2507      C2508   1.404       .  A
C2507      H2520   1.084       .  S
C2508      C2511   1.490       .  S
C2508      C2509   1.409       .  A
C2509      C2510   1.402       .  A
C2509      H2521   1.081       .  S
C2510      H2522   1.083       .  S
C2511      C2512   1.348       .  D
C2511      H2523   1.086       .  S
C2512      H2524   1.085       .  S
C2513      C2514   1.403       .  A
C2513      C2518   1.409       .  A
C2514      C2515   1.400       .  A
C2514      H2525   1.084       .  S
C2515      C2516   1.408       .  A
C2515      H2526   1.083       .  S
C2516      C2517   1.406       .  A
C2517      C2518   1.400       .  A
C2517      H2527   1.083       .  S
C2529      C2530   1.407       .  A
C2529      C2534   1.406       .  A
C2530      C2531   1.400       .  A
C2530      H2543   1.083       .  S
C2531      C2532   1.404       .  A
C2531      H2544   1.083       .  S
C2532      C2533   1.410       .  A
C2533      C2534   1.401       .  A
C2533      H2545   1.081       .  S
C2534      H2546   1.083       .  S
C2535      C2536   1.348       .  D
C2535      H2547   1.086       .  S
C2536      C2537   1.489       .  S
C2536      H2548   1.085       .  S
C2537      C2538   1.403       .  A
C2537      C2542   1.411       .  A
C2538      C2539   1.395       .  A
C2538      H2549   1.083       .  S
C2539      C2540   1.404       .  A
C2539      H2550   1.083       .  S
C2540      C2541   1.403       .  A
C2541      C2542   1.405       .  A
C2541      H2551   1.083       .  S
C2542      H2552   1.082       .  S
C2553      C2554   1.401       .  A
C2553      C2558   1.402       .  A
C2554      C2555   1.400       .  A
C2554      H2567   1.080       .  S
C2555      C2556   1.406       .  A
C2555      H2568   1.083       .  S
C2556      C2559   1.497       .  S
C2556      C2557   1.413       .  A
C2557      C2558   1.402       .  A
C2557      H2569   1.079       .  S
C2558      H2570   1.083       .  S
C2559      C2560   1.350       .  D
C2559      H2571   1.085       .  S
C2560      C2561   1.493       .  S
C2560      H2572   1.083       .  S
C2561      C2562   1.403       .  A
C2561      C2566   1.411       .  A
C2562      C2563   1.397       .  A
C2562      H2573   1.084       .  S
C2563      C2564   1.407       .  A
C2563      H2574   1.083       .  S
C2564      C2565   1.407       .  A
C2565      C2566   1.405       .  A
C2565      H2575   1.083       .  S
C2566      H2576   1.081       .  S
C2577      C2578   1.407       .  A
C2577      C2582   1.403       .  A
C2578      C2579   1.395       .  A
C2578      H2591   1.084       .  S
C2579      C2580   1.401       .  A
C2579      H2592   1.083       .  S
C2580      C2583   1.485       .  S
C2580      C2581   1.410       .  A
C2581      C2582   1.398       .  A
C2581      H2593   1.081       .  S
C2582      H2594   1.082       .  S
C2583      C2584   1.344       .  D
C2583      H2595   1.085       .  S
C2584      C2585   1.482       .  S
C2584      H2596   1.084       .  S
C2585      C2586   1.399       .  A
C2585      C2590   1.409       .  A
C2586      C2587   1.392       .  A
C2586      H2597   1.083       .  S
C2587      C2588   1.407       .  A
C2587      H2598   1.083       .  S
C2588      C2589   1.405       .  A
C2589      C2590   1.402       .  A
C2589      H2599   1.082       .  S
C2590      H2600   1.082       .  S
C2601      C2602   1.407       .  A
C2601      C2606   1.403       .  A
C2602      C2603   1.394       .  A
C2602      H2615   1.083       .  S
C2603      C2604   1.400       .  A
C2603      H2616   1.083       .  S
C2604      C2607   1.481       .  S
C2604      C2605   1.409       .  A
C2605      C2606   1.398       .  A
C2605      H2617   1.082       .  S
C2606      H2618   1.083       .  S
C2607      C2608   1.343       .  D
C2607      H2619   1.086       .  S
C2608      C2609   1.478       .  S
C2608      H2620   1.085       .  S
C2609      C2610   1.398       .  A
C2609      C2614   1.408       .  A
C2610      C2611   1.392       .  A
C2610      H2621   1.084       .  S
C2611      C2612   1.408       .  A
C2611      H2622   1.083       .  S
C2612      C2613   1.404       .  A
C2613      C2614   1.400       .  A
C2613      H2623   1.082       .  S
C2614      H2624   1.082       .  S
C2625      C2626   1.404       .  A
C2625      C2630   1.406       .  A
C2626      C2627   1.399       .  A
C2626      H2639   1.082       .  S
C2627      C2628   1.405       .  A
C2627      H2640   1.084       .  S
C2628      C2631   1.482       .  S
C2628      C2629   1.405       .  A
C2629      C2630   1.392       .  A
C2629      H2641   1.081       .  S
C2630      H2642   1.083       .  S
C2631      C2632   1.349       .  D
C2631      H2643   1.085       .  S
C2632      C2633   1.483       .  S
C2632      H2644   1.085       .  S
C2633      C2634   1.405       .  A
C2633      C2638   1.404       .  A
C2634      C2635   1.400       .  A
C2634      H2645   1.084       .  S
C2635      C2636   1.404       .  A
C2635      H2646   1.083       .  S
C2636      C2637   1.407       .  A
C2637      C2638   1.393       .  A
C2637      H2647   1.083       .  S
C2638      H2648   1.081       .  S
C2649      C2650   1.406       .  A
C2649      C2654   1.407       .  A
C2650      C2651   1.397       .  A
C2650      H2663   1.083       .  S
C2651      C2652   1.402       .  A
C2651      H2664   1.083       .  S
C2652      C2655   1.484       .  S
C2652      C2653   1.406       .  A
C2653      C2654   1.401       .  A
C2653      H2665   1.082       .  S
C2654      H2666   1.083       .  S
C2655      C2656   1.347       .  D
C2655      H2667   1.086       .  S
C2656      C2657   1.485       .  S
C2656      H2668   1.086       .  S
C2657      C2658   1.404       .  A
C2657      C2662   1.405       .  A
C2658      C2659   1.401       .  A
C2658      H2669   1.084       .  S
C2659      C2660   1.407       .  A
C2659      H2670   1.083       .  S
C2660      C2661   1.406       .  A
C2661      C2662   1.396       .  A
C2661      H2671   1.083       .  S
C2662      H2672   1.082       .  S
C2673      C2674   1.406       .  A
C2673      C2678   1.407       .  A
C2674      C2675   1.398       .  A
C2674      H2687   1.083       .  S
C2675      C2676   1.402       .  A
C2675      H2688   1.083       .  S
C2676      C2679   1.484       .  S
C2676      C2677   1.406       .  A
C2677      C2678   1.399       .  A
C2677      H2689   1.082       .  S
C2678      H2690   1.083       .  S
C2679      C2680   1.347       .  D
C2679      H2691   1.086       .  S
C2680      C2681   1.486       .  S
C2680      H2692   1.086       .  S
C2681      C2682   1.403       .  A
C2681      C2686   1.406       .  A
C2682      C2683   1.400       .  A
C2682      H2693   1.084       .  S
C2683      C2684   1.407       .  A
C2683      H2694   1.083       .  S
C2684      C2685   1.405       .  A
C2685      C2686   1.397       .  A
C2685      H2695   1.083       .  S
C2686      H2696   1.082       .  S
C2697      C2698   1.406       .  A
C2697      C2702   1.406       .  A
C2698      C2699   1.397       .  A
C2698      H2711   1.083       .  S
C2699      C2700   1.402       .  A
C2699      H2712   1.084       .  S
C2700      C2703   1.484       .  S
C2700      C2701   1.407       .  A
C2701      C2702   1.399       .  A
C2701      H2713   1.082       .  S
C2702      H2714   1.083       .  S
C2703      C2704   1.347       .  D
C2703      H2715   1.085       .  S
C2704      C2705   1.486       .  S
C2704      H2716   1.086       .  S
C2705      C2706   1.404       .  A
C2705      C2710   1.407       .  A
C2706      C2707   1.399       .  A
C2706      H2717   1.084       .  S
C2707      C2708   1.405       .  A
C2707      H2718   1.083       .  S
C2708      C2709   1.405       .  A
C2709      C2710   1.397       .  A
C2709      H2719   1.083       .  S
C2710      H2720   1.082       .  S
C2721      C2722   1.404       .  A
C2721      C2726   1.400       .  A
C2722      C2723   1.396       .  A
C2722      H2735   1.083       .  S
C2723      C2724   1.403       .  A
C2723      H2736   1.083       .  S
C2724      C2727   1.488       .  S
C2724      C2725   1.411       .  A
C2725      C2726   1.400       .  A
C2725      H2737   1.081       .  S
C2726      H2738   1.083       .  S
C2727      C2728   1.348       .  D
C2727      H2739   1.084       .  S
C2728      H2740   1.085       .  S
C2729      C2730   1.403       .  A
C2729      C2734   1.410       .  A
C2730      C2731   1.396       .  A
C2730      H2741   1.084       .  S
C2731      C2732   1.406       .  A
C2731      H2742   1.083       .  S
C2732      C2733   1.406       .  A
C2733      C2734   1.401       .  A
C2733      H2743   1.083       .  S
C2734      H2744   1.081       .  S
C2745      C2746   1.403       .  A
C2745      C2750   1.401       .  A
C2746      C2747   1.397       .  A
C2746      H2759   1.083       .  S
C2747      C2748   1.404       .  A
C2747      H2760   1.083       .  S
C2748      C2751   1.486       .  S
C2748      C2749   1.409       .  A
C2749      C2750   1.399       .  A
C2749      H2761   1.081       .  S
C2750      H2762   1.080       .  S
C2751      C2752   1.348       .  D
C2751      H2763   1.084       .  S
C2752      H2764   1.085       .  S
C2753      C2754   1.404       .  A
C2753      C2758   1.408       .  A
C2754      C2755   1.399       .  A
C2754      H2765   1.084       .  S
C2755      C2756   1.405       .  A
C2755      H2766   1.083       .  S
C2756      C2757   1.406       .  A
C2757      C2758   1.397       .  A
C2757      H2767   1.083       .  S
C2758      H2768   1.081       .  S
C2769      C2770   1.400       .  A
C2769      C2774   1.405       .  A
C2770      C2771   1.399       .  A
C2770      H2783   1.080       .  S
C2771      C2772   1.406       .  A
C2771      H2784   1.083       .  S
C2772      C2775   1.495       .  S
C2772      C2773   1.410       .  A
C2773      C2774   1.399       .  A
C2773      H2785   1.079       .  S
C2774      H2786   1.083       .  S
C2775      C2776   1.350       .  D
C2775      H2787   1.085       .  S
C2776      C2777   1.489       .  S
C2776      H2788   1.082       .  S
C2777      C2778   1.403       .  A
C2777      C2782   1.408       .  A
C2778      C2779   1.398       .  A
C2778      H2789   1.083       .  S
C2779      C2780   1.406       .  A
C2779      H2790   1.083       .  S
C2780      C2781   1.406       .  A
C2781      C2782   1.400       .  A
C2781      H2791   1.083       .  S
C2782      H2792   1.081       .  S
C2793      C2794   1.407       .  A
C2793      C2798   1.406       .  A
C2794      C2795   1.402       .  A
C2794      H2807   1.083       .  S
C2795      C2796   1.406       .  A
C2795      H2808   1.084       .  S
C2796      C2797   1.407       .  A
C2797      C2798   1.395       .  A
C2797      H2809   1.081       .  S
C2798      H2810   1.083       .  S
C2799      C2800   1.349       .  D
C2799      H2811   1.085       .  S
C2800      C2801   1.487       .  S
C2800      H2812   1.085       .  S
C2801      C2802   1.404       .  A
C2801      C2806   1.408       .  A
C2802      C2803   1.397       .  A
C2802      H2813   1.084       .  S
C2803      C2804   1.400       .  A
C2803      H2814   1.077       .  S
C2804      C2805   1.405       .  A
C2805      C2806   1.400       .  A
C2805      H2815   1.083       .  S
C2806      H2816   1.081       .  S
C2817      C2818   1.404       .  A
C2817      C2822   1.407       .  A
C2818      C2819   1.399       .  A
C2818      H2831   1.083       .  S
C2819      C2820   1.406       .  A
C2819      H2832   1.084       .  S
C2820      C2821   1.409       .  A
C2821      C2822   1.397       .  A
C2821      H2833   1.079   1_565  S
C2822      H2834   1.083       .  S
C2823      C2824   1.349       .  D
C2823      H2835   1.085       .  S
C2824      C2825   1.488       .  S
C2824      H2836   1.083       .  S
C2825      C2826   1.402       .  A
C2825      C2830   1.407       .  A
C2826      C2827   1.397       .  A
C2826      H2837   1.083       .  S
C2827      C2828   1.404       .  A
C2827      H2838   1.076       .  S
C2828      C2829   1.408       .  A
C2829      C2830   1.399       .  A
C2829      H2839   1.081       .  S
C2830      H2840   1.081       .  S
C2841      C2842   1.406       .  A
C2841      C2846   1.407       .  A
C2842      C2843   1.402       .  A
C2842      H2855   1.083       .  S
C2843      C2844   1.405       .  A
C2843      H2856   1.083       .  S
C2844      C2847   1.488       .  S
C2844      C2845   1.406       .  A
C2845      C2846   1.397       .  A
C2845      H2857   1.082       .  S
C2846      H2858   1.083       .  S
C2847      C2848   1.349       .  D
C2847      H2859   1.085       .  S
C2848      C2849   1.486       .  S
C2848      H2860   1.085       .  S
C2849      C2850   1.405       .  A
C2849      C2854   1.407       .  A
C2850      C2851   1.398       .  A
C2850      H2861   1.084       .  S
C2851      C2852   1.401       .  A
C2851      H2862   1.083       .  S
C2852      C2853   1.405       .  A
C2853      C2854   1.398       .  A
C2853      H2863   1.084       .  S
C2854      H2864   1.082       .  S
C2865      C2866   1.406       .  A
C2865      C2870   1.406       .  A
C2866      C2867   1.398       .  A
C2866      H2879   1.083       .  S
C2867      C2868   1.403       .  A
C2867      H2880   1.084       .  S
C2868      C2871   1.489       .  S
C2868      C2869   1.409       .  A
C2869      C2870   1.400       .  A
C2869      H2881   1.081       .  S
C2870      H2882   1.083       .  S
C2871      C2872   1.348       .  D
C2871      H2883   1.085       .  S
C2872      C2873   1.489       .  S
C2872      H2884   1.084       .  S
C2873      C2874   1.403       .  A
C2873      C2878   1.409       .  A
C2874      C2875   1.397       .  A
C2874      H2885   1.084       .  S
C2875      C2876   1.406       .  A
C2876      C2877   1.406       .  A
C2877      C2878   1.401       .  A
C2877      H2887   1.083       .  S
C2878      H2888   1.081       .  S
C2889      C2890   1.405       .  A
C2889      C2894   1.406       .  A
C2890      C2891   1.397       .  A
C2890      H2903   1.083       .  S
C2891      C2892   1.404       .  A
C2891      H2904   1.083       .  S
C2892      C2895   1.488       .  S
C2892      C2893   1.408       .  A
C2893      C2894   1.400       .  A
C2893      H2905   1.081       .  S
C2894      H2906   1.082       .  S
C2895      C2896   1.349       .  D
C2895      H2907   1.084       .  S
C2896      C2897   1.490       .  S
C2896      H2908   1.084       .  S
C2897      C2898   1.404       .  A
C2897      C2902   1.409       .  A
C2898      C2899   1.399       .  A
C2898      H2909   1.083       .  S
C2899      C2900   1.406       .  A
C2899      H2910   1.083       .  S
C2900      C2901   1.406       .  A
C2901      C2902   1.398       .  A
C2901      H2911   1.082       .  S
C2902      H2912   1.081       .  S
C2913      C2914   1.406       .  A
C2913      C2918   1.406       .  A
C2914      C2915   1.397       .  A
C2914      H2927   1.083       .  S
C2915      C2916   1.402       .  A
C2915      H2928   1.083       .  S
C2916      C2919   1.485       .  S
C2916      C2917   1.408       .  A
C2917      C2918   1.398       .  A
C2917      H2929   1.082       .  S
C2918      H2930   1.083       .  S
C2919      C2920   1.347       .  D
C2919      H2931   1.084       .  S
C2920      C2921   1.487       .  S
C2920      H2932   1.085       .  S
C2921      C2922   1.403       .  A
C2921      C2926   1.408       .  A
C2922      C2923   1.397       .  A
C2922      H2933   1.084       .  S
C2923      C2924   1.406       .  A
C2923      H2934   1.083       .  S
C2924      C2925   1.406       .  A
C2925      C2926   1.399       .  A
C2925      H2935   1.083       .  S
C2926      H2936   1.081       .  S
