geometry optimzed in LAMMPS
_audit_creation_date              2020-11-30 
_audit_creation_method            'lammps2cif' 
_symmetry_space_group_name_H-M    'P1' 
_symmetry_Int_Tables_number       1 
_symmetry_cell_setting            triclinic 
loop_ 
_symmetry_equiv_pos_as_xyz 
  x,y,z 
_cell_length_a                    68.61420412 
_cell_length_b                    68.65040395834143 
_cell_length_c                    34.7946952414728 
_cell_angle_alpha                 90.00931171009967 
_cell_angle_beta                  90.1043560086495 
_cell_angle_gamma                 90.05038889015503 
loop_ 
_atom_site_label 
_atom_site_type_symbol 
_atom_site_fract_x 
_atom_site_fract_y 
_atom_site_fract_z 
_atom_site_charge 
Zn1        Zn  0.64131432  0.86086971  0.14970369     1.49700
Zn2        Zn  0.64800176  0.89231309  0.21331908     1.49400
Zn3        Zn  0.61207037  0.89677357  0.15310940     1.49100
Zn4        Zn  0.61126017  0.86323043  0.21662560     1.49500
O5          O  0.62798242  0.87861481  0.18343034    -1.82900
O6          O  0.66964378  0.86634273  0.14663159    -0.73500
O7          O  0.64201964  0.92091177  0.21279387    -0.73300
O8          O  0.61855000  0.89374990  0.09566794    -0.72800
O9          O  0.67531718  0.88889156  0.19068100    -0.73500
O10         O  0.63262242  0.86461310  0.09650558    -0.73100
O11         O  0.61703755  0.92449009  0.17244486    -0.73700
O12         O  0.58291332  0.86972352  0.20862979    -0.73100
O13         O  0.64663557  0.88424067  0.26957382    -0.73800
O14         O  0.58289448  0.89116810  0.16088781    -0.73200
O15         O  0.61846819  0.86821809  0.27132520    -0.73700
O16         O  0.61443623  0.83426072  0.20764158    -0.73600
O17         O  0.63741636  0.83299840  0.16316384    -0.73400
C18         C  0.68121331  0.87804392  0.16327821     0.78400
C19         C  0.62931176  0.93156839  0.19636915     0.78900
C20         C  0.62566512  0.87898876  0.07817533     0.77900
C21         C  0.57372461  0.88050810  0.18495743     0.78200
C22         C  0.63308036  0.87577217  0.28836627     0.79400
C23         C  0.62575697  0.82451187  0.18597965     0.78400
Zn24       Zn  0.61609363  0.89156316  0.65254276     1.49700
Zn25       Zn  0.65013356  0.88647808  0.71532378     1.49400
Zn26       Zn  0.61353768  0.85829351  0.71636878     1.49100
Zn27       Zn  0.64553286  0.85504645  0.65081564     1.49500
O28         O  0.63114863  0.87289955  0.68353485    -1.82900
O29         O  0.62111326  0.91943614  0.67103528    -0.73500
O30         O  0.64804234  0.87879276  0.77110188    -0.73300
O31         O  0.58547959  0.86482358  0.70468952    -0.72800
O32         O  0.64384878  0.91467976  0.71542992    -0.73500
O33         O  0.58695849  0.88681682  0.65814497    -0.73100
O34         O  0.61922984  0.86404224  0.77208212    -0.73700
O35         O  0.63975495  0.82717861  0.66363346    -0.73100
O36         O  0.67766813  0.88359640  0.69508676    -0.73800
O37         O  0.61686900  0.82936614  0.70847474    -0.73200
O38         O  0.67440619  0.85924592  0.65367415    -0.73700
O39         O  0.63918804  0.86014215  0.59569307    -0.73600
O40         O  0.62253223  0.88796197  0.59595692    -0.73400
C41         C  0.63230301  0.92593168  0.69749275     0.78400
C42         C  0.63382836  0.87138419  0.78958559     0.78900
C43         C  0.57705196  0.87601785  0.68065442     0.77900
C44         C  0.62792372  0.81921539  0.68697776     0.78200
C45         C  0.68491356  0.87188003  0.67056715     0.79400
C46         C  0.63100753  0.87414690  0.57795226     0.78400
Zn47       Zn  0.88715132  0.89867556  0.08336345     1.49700
Zn48       Zn  0.86010439  0.86163873  0.08909633     1.49400
Zn49       Zn  0.85372487  0.89087544  0.02081908     1.49100
Zn50       Zn  0.89064439  0.86363599  0.02263293     1.49500
O51         O  0.87308447  0.87886704  0.05393693    -1.82900
O52         O  0.88114866  0.89602323  0.14031358    -0.73500
O53         O  0.83162254  0.86735960  0.08988987    -0.73300
O54         O  0.85875504  0.91938456  0.01835391    -0.72800
O55         O  0.86914591  0.86595841  0.14264480    -0.73500
O56         O  0.88098187  0.92589512  0.06292846    -0.73100
O57         O  0.82628531  0.88746797  0.04112012    -0.73700
O58         O  0.88601886  0.86878605  0.96690625    -0.73100
O59         O  0.86468022  0.83364791  0.07673948    -0.73800
O60         O  0.85648790  0.88194781  0.96604410    -0.73200
O61         O  0.88718395  0.83480720  0.03110407    -0.73700
O62         O  0.91817109  0.87047553  0.03503269    -0.73600
O63         O  0.91619244  0.89434958  0.07806035    -0.73400
C64         C  0.87551561  0.88114810  0.15932611     0.78400
C65         C  0.82015418  0.87791228  0.07007064     0.78900
C66         C  0.86961591  0.93145537  0.03595431     0.77900
C67         C  0.87129808  0.87514106  0.94853062     0.78200
C68         C  0.87626585  0.82516521  0.05371158     0.79400
C69         C  0.92620779  0.88268524  0.05756605     0.78400
Zn70       Zn  0.86267389  0.90305913  0.58726940     1.49700
Zn71       Zn  0.89210511  0.89710861  0.51875333     1.49400
Zn72       Zn  0.89078571  0.86613207  0.58462565     1.49100
Zn73       Zn  0.85567546  0.86862958  0.52510740     1.49500
O74         O  0.87508123  0.88369927  0.55402688    -1.82900
O75         O  0.86706157  0.93122091  0.56857510    -0.73500
O76         O  0.92057160  0.89376540  0.53105074    -0.73300
O77         O  0.88440790  0.86946517  0.64051955    -0.72800
O78         O  0.88651380  0.92533784  0.51918784    -0.73500
O79         O  0.87055505  0.89873215  0.64295305    -0.73100
O80         O  0.91932226  0.87205156  0.57805910    -0.73700
O81         O  0.86045915  0.83968239  0.53107026    -0.73100
O82         O  0.88659627  0.88900269  0.46504875    -0.73800
O83         O  0.88601244  0.83809649  0.57000614    -0.73200
O84         O  0.85790079  0.87397659  0.46799601    -0.73700
O85         O  0.82844999  0.87434430  0.54491342    -0.73600
O86         O  0.83386240  0.89792489  0.58735941    -0.73400
C87         C  0.87665287  0.93714823  0.53937748     0.78400
C88         C  0.92905868  0.88321053  0.55603099     0.78900
C89         C  0.87731029  0.88359393  0.65964529     0.77900
C90         C  0.87324116  0.82976217  0.54906713     0.78200
C91         C  0.87191764  0.88124563  0.44869109     0.79400
C92         C  0.82231104  0.88615160  0.57050836     0.78400
Zn93       Zn  0.88583803  0.11135808  0.40379322     1.49700
Zn94       Zn  0.85111639  0.11459699  0.46451123     1.49400
Zn95       Zn  0.88718965  0.14384664  0.46989567     1.49100
Zn96       Zn  0.85668184  0.14756142  0.40228002     1.49500
O97         O  0.87032471  0.12927029  0.43516326    -1.82900
O98         O  0.88155110  0.08329089  0.42035976    -0.73500
O99         O  0.85341666  0.12043251  0.52152657    -0.73300
O100        O  0.91543299  0.13829767  0.45869633    -0.72800
O101        O  0.85687909  0.08609756  0.46117205    -0.73500
O102        O  0.91444972  0.11657767  0.41149607    -0.73100
O103        O  0.88171219  0.13612008  0.52456059    -0.73700
O104        O  0.86201170  0.17528824  0.41679887    -0.73100
O105        O  0.82380877  0.11854471  0.44327509    -0.73800
O106        O  0.88288998  0.17293398  0.46529517    -0.73200
O107        O  0.82788326  0.14345889  0.40340211    -0.73700
O108        O  0.86344742  0.14290695  0.34728140    -0.73600
O109        O  0.87972314  0.11494018  0.34708100    -0.73400
C110        C  0.86947823  0.07575135  0.44387792     0.78400
C111        C  0.86749683  0.12759018  0.54101501     0.78900
C112        C  0.92405732  0.12723961  0.43476280     0.77900
C113        C  0.87249872  0.18319600  0.44267712     0.78200
C114        C  0.81704719  0.13071237  0.41897959     0.79400
C115        C  0.87131663  0.12884946  0.32923561     0.78400
Zn116      Zn  0.85712761  0.14093441  0.89835216     1.49700
Zn117      Zn  0.88716297  0.10529252  0.90782598     1.49400
Zn118      Zn  0.88872867  0.14216610  0.96462217     1.49100
Zn119      Zn  0.85256198  0.11253770  0.96855967     1.49500
O120        O  0.87158544  0.12512201  0.93480329    -1.82900
O121        O  0.86300357  0.13237579  0.84502362    -0.73500
O122        O  0.91610791  0.10988885  0.91664288    -0.73300
O123        O  0.88460690  0.17051425  0.95074659    -0.72800
O124        O  0.88181638  0.10611219  0.84985155    -0.73500
O125        O  0.86235904  0.16957493  0.90438745    -0.73100
O126        O  0.91709017  0.13567173  0.95522774    -0.73700
O127        O  0.85554718  0.12203033  0.02276806    -0.73100
O128        O  0.88101383  0.07835508  0.92885248    -0.73800
O129        O  0.88303458  0.13915483  0.02131493    -0.73200
O130        O  0.85734781  0.08386507  0.97090571    -0.73700
O131        O  0.82475818  0.11578018  0.95028781    -0.73600
O132        O  0.82843012  0.13706659  0.90301162    -0.73400
C133        C  0.87200276  0.11818503  0.82967578     0.78400
C134        C  0.92571849  0.12246620  0.93591466     0.78900
C135        C  0.87354815  0.17912600  0.92669599     0.77900
C136        C  0.86907306  0.13134125  0.03992578     0.78200
C137        C  0.86892299  0.07226146  0.95395722     0.79400
C138        C  0.81763919  0.12624792  0.92355035     0.78400
Zn139      Zn  0.60715277  0.11051651  0.27441592     1.49700
Zn140      Zn  0.61054018  0.14086143  0.34074508     1.49400
Zn141      Zn  0.63819919  0.10342172  0.34050681     1.49100
Zn142      Zn  0.64455742  0.13754647  0.27849821     1.49500
O143        O  0.62533975  0.12310085  0.30870257    -1.82900
O144        O  0.57924056  0.11417316  0.29091455    -0.73500
O145        O  0.61738326  0.13655696  0.39558485    -0.73300
O146        O  0.63286756  0.07563011  0.32098148    -0.72800
O147        O  0.58150262  0.13632105  0.33709161    -0.73500
O148        O  0.61200957  0.08206742  0.27397263    -0.73100
O149        O  0.63088418  0.10714876  0.39655697    -0.73700
O150        O  0.67205961  0.13194314  0.29721972    -0.73100
O151        O  0.61644095  0.16866663  0.32755178    -0.73800
O152        O  0.66718049  0.10829103  0.33961438    -0.73200
O153        O  0.64025753  0.16666923  0.28463333    -0.73700
O154        O  0.64171718  0.13074569  0.22185663    -0.73600
O155        O  0.61162848  0.11865981  0.21967791    -0.73400
C156        C  0.57134795  0.12482575  0.31647253     0.78400
C157        C  0.62424905  0.12211232  0.41400186     0.78900
C158        C  0.62226313  0.07000646  0.29284646     0.77900
C159        C  0.67854770  0.12009144  0.32239734     0.78200
C160        C  0.62863460  0.17677490  0.30512221     0.79400
C161        C  0.62704119  0.12452112  0.20283500     0.78400
Zn162      Zn  0.64028467  0.09812798  0.83914014     1.49700
Zn163      Zn  0.61316951  0.13528937  0.84011587     1.49400
Zn164      Zn  0.64764621  0.13353820  0.77853446     1.49100
Zn165      Zn  0.61079856  0.10574405  0.77197613     1.49500
O166        O  0.62828627  0.11830209  0.80744534    -1.82900
O167        O  0.63350718  0.10124605  0.89573370    -0.73500
O168        O  0.61857549  0.16331249  0.82779909    -0.73300
O169        O  0.67509812  0.12656638  0.79698907    -0.72800
O170        O  0.62015003  0.13067378  0.89531041    -0.73500
O171        O  0.66892891  0.10277163  0.83875793    -0.73100
O172        O  0.64361559  0.16259858  0.78757038    -0.73700
O173        O  0.61449570  0.11592216  0.71947264    -0.73100
O174        O  0.58428769  0.13050561  0.83416575    -0.73800
O175        O  0.64391544  0.12954160  0.72089950    -0.73200
O176        O  0.58279690  0.10901763  0.78674931    -0.73700
O177        O  0.61677752  0.07748844  0.76745582    -0.73600
O178        O  0.63517580  0.07068294  0.81832890    -0.73400
C179        C  0.62724348  0.11624289  0.91354908     0.78400
C180        C  0.63118143  0.17209734  0.80730137     0.78900
C181        C  0.68077421  0.11436528  0.82238830     0.77900
C182        C  0.62900865  0.12344716  0.70240639     0.78200
C183        C  0.57442441  0.11960522  0.81178201     0.79400
C184        C  0.62626964  0.06541617  0.78779619     0.78400
Zn185      Zn  0.13892773  0.86101734  0.10706056     1.49700
Zn186      Zn  0.11041754  0.86246647  0.03735274     1.49400
Zn187      Zn  0.11061118  0.89713602  0.09930839     1.49100
Zn188      Zn  0.14617853  0.89215305  0.04026909     1.49500
O189        O  0.12654009  0.87839173  0.07079493    -1.82900
O190        O  0.13539662  0.83263742  0.09402097    -0.73500
O191        O  0.08220652  0.86807012  0.04575122    -0.73300
O192        O  0.11486894  0.89471536  0.15724010    -0.72800
O193        O  0.11462134  0.83376988  0.04538201    -0.73500
O194        O  0.12936727  0.86581171  0.16040396    -0.73100
O195        O  0.08217855  0.89188544  0.08892899    -0.73700
O196        O  0.14102505  0.92100872  0.04175455    -0.73100
O197        O  0.11675453  0.86761860  0.98247970    -0.73800
O198        O  0.11585056  0.92468865  0.08117277    -0.73200
O199        O  0.14418278  0.88485099  0.98382358    -0.73700
O200        O  0.17335838  0.88753485  0.06165841    -0.73600
O201        O  0.16726487  0.86664185  0.10886659    -0.73400
C202        C  0.12512339  0.82406741  0.06866036     0.78400
C203        C  0.07310859  0.88006607  0.06701056     0.78900
C204        C  0.12138406  0.88035062  0.17667683     0.77900
C205        C  0.12840750  0.93177346  0.05810062     0.78200
C206        C  0.13085797  0.87587247  0.96529017     0.79400
C207        C  0.17904564  0.87730973  0.09016841     0.78400
Zn208      Zn  0.11108444  0.85852287  0.53951051     1.49700
Zn209      Zn  0.14822327  0.88584511  0.53640359     1.49400
Zn210      Zn  0.11478962  0.89417571  0.59923076     1.49100
Zn211      Zn  0.14219520  0.85706186  0.60525635     1.49500
O212        O  0.12884033  0.87407065  0.57009987    -1.82900
O213        O  0.11523903  0.86432780  0.48336033    -0.73500
O214        O  0.14244013  0.91419616  0.53238249    -0.73300
O215        O  0.08563278  0.89081209  0.59160465    -0.72800
O216        O  0.14510556  0.87686058  0.48132804    -0.73500
O217        O  0.08356884  0.86566498  0.55164489    -0.73100
O218        O  0.12131823  0.92132314  0.57861613    -0.73700
O219        O  0.13356777  0.86184803  0.65867538    -0.73100
O220        O  0.17593686  0.88332894  0.55779822    -0.73800
O221        O  0.12019483  0.89127913  0.65683817    -0.73200
O222        O  0.17054446  0.86331389  0.60666859    -0.73700
O223        O  0.13790457  0.82879535  0.59341914    -0.73600
O224        O  0.11456625  0.82956696  0.54925051    -0.73400
C225        C  0.12969700  0.87090897  0.46439859     0.78400
C226        C  0.13184759  0.92642564  0.55008562     0.78900
C227        C  0.07552164  0.87880796  0.57192386     0.77900
C228        C  0.12659724  0.87664747  0.67573844     0.78200
C229        C  0.18195591  0.87415583  0.58744855     0.79400
C230        C  0.12598166  0.82005000  0.57126871     0.78400
Zn231      Zn  0.38692729  0.89600727  0.16677958     1.49700
Zn232      Zn  0.35197417  0.88785690  0.22621144     1.49400
Zn233      Zn  0.35913745  0.85923083  0.15643936     1.49100
Zn234      Zn  0.38865964  0.85965498  0.22542536     1.49500
O235        O  0.37184491  0.87586555  0.19377674    -1.82900
O236        O  0.37997801  0.92312812  0.18677164    -0.73500
O237        O  0.32477691  0.88336385  0.20606032    -0.73300
O238        O  0.36764142  0.86570797  0.10326277    -0.72800
O239        O  0.35576978  0.91663636  0.22698624    -0.73500
O240        O  0.38179696  0.89471246  0.10887020    -0.73100
O241        O  0.33064295  0.86423489  0.15615765    -0.73700
O242        O  0.38418567  0.83095256  0.21514794    -0.73100
O243        O  0.35454278  0.87960873  0.28158451    -0.73800
O244        O  0.36336161  0.83067353  0.16644238    -0.73200
O245        O  0.38311993  0.86441792  0.28149525    -0.73700
O246        O  0.41691941  0.86567363  0.21478484    -0.73600
O247        O  0.41601072  0.89119445  0.17548751    -0.73400
C248        C  0.36716834  0.92875348  0.21091733     0.78400
C249        C  0.31889096  0.87403201  0.17661681     0.78900
C250        C  0.37501521  0.88089936  0.08819959     0.77900
C251        C  0.37375438  0.82165165  0.19096247     0.78200
C252        C  0.36868342  0.87169914  0.29948158     0.79400
C253        C  0.42560851  0.87853481  0.19468476     0.78400
Zn254      Zn  0.39355498  0.86222916  0.72549047     1.49700
Zn255      Zn  0.36158073  0.85928416  0.66133006     1.49400
Zn256      Zn  0.35627748  0.89078072  0.72485770     1.49100
Zn257      Zn  0.39013678  0.89623352  0.66221780     1.49500
O258        O  0.37561592  0.87732156  0.69361025    -1.82900
O259        O  0.38848010  0.83303954  0.72139157    -0.73500
O260        O  0.33306225  0.86474221  0.66080724    -0.73300
O261        O  0.36051811  0.88414293  0.78073298    -0.72800
O262        O  0.36525177  0.83145430  0.67708277    -0.73500
O263        O  0.38977805  0.87010173  0.78116550    -0.73100
O264        O  0.32804479  0.88650362  0.70654858    -0.73700
O265        O  0.38530089  0.92434330  0.68114940    -0.73100
O266        O  0.36946824  0.86272340  0.60712831    -0.73800
O267        O  0.36141771  0.91941230  0.72301562    -0.73200
O268        O  0.38303393  0.89217385  0.60555564    -0.73700
O269        O  0.41919994  0.89103735  0.66636812    -0.73600
O270        O  0.42149062  0.86690114  0.70874084    -0.73400
C271        C  0.37656754  0.82318459  0.70101267     0.78400
C272        C  0.32159076  0.87573092  0.67943256     0.78900
C273        C  0.37538192  0.87772198  0.79887971     0.77900
C274        C  0.37322845  0.93080237  0.70604712     0.78200
C275        C  0.37597758  0.87723703  0.58843687     0.79400
C276        C  0.42938770  0.87882730  0.68532994     0.78400
Zn277      Zn  0.38800404  0.10530527  0.28996050     1.49700
Zn278      Zn  0.35424437  0.10223100  0.35203691     1.49400
Zn279      Zn  0.38503635  0.13726063  0.35403066     1.49100
Zn280      Zn  0.35210658  0.13497446  0.28731082     1.49500
O281        O  0.36978878  0.12010068  0.32094422    -1.82900
O282        O  0.38283707  0.07683466  0.29426346    -0.73500
O283        O  0.36103296  0.10482457  0.40856061    -0.73300
O284        O  0.41438629  0.13351446  0.34758823    -0.72800
O285        O  0.35706454  0.07432186  0.33263306    -0.73500
O286        O  0.41601842  0.11066620  0.30271623    -0.73100
O287        O  0.37836269  0.13218564  0.40929231    -0.73700
O288        O  0.35748940  0.16362761  0.29351585    -0.73100
O289        O  0.32592436  0.10996806  0.34990194    -0.73800
O290        O  0.37846434  0.16517799  0.34222645    -0.73200
O291        O  0.32347964  0.13179906  0.30324355    -0.73700
O292        O  0.35697069  0.12839032  0.23086740    -0.73600
O293        O  0.38438049  0.11132799  0.23448946    -0.73400
C294        C  0.36954160  0.06669809  0.30998830     0.78400
C295        C  0.36935777  0.11862133  0.42689433     0.78900
C296        C  0.42434258  0.12233582  0.32592338     0.77900
C297        C  0.36765809  0.17344813  0.31727928     0.78200
C298        C  0.31572556  0.12181929  0.33015043     0.79400
C299        C  0.37125253  0.11972534  0.21470844     0.78400
Zn300      Zn  0.36146755  0.13992410  0.85814860     1.49700
Zn301      Zn  0.39054836  0.10411262  0.84829634     1.49400
Zn302      Zn  0.35387723  0.10896302  0.79225118     1.49100
Zn303      Zn  0.38930694  0.13899829  0.78669910     1.49500
O304        O  0.37391566  0.12286985  0.82121655    -1.82900
O305        O  0.37284508  0.13618032  0.91062840    -0.73500
O306        O  0.38539292  0.07597057  0.83095168    -0.73300
O307        O  0.32709451  0.11218314  0.81628617    -0.72800
O308        O  0.38760867  0.10740337  0.90621138    -0.73500
O309        O  0.33322656  0.13338663  0.86284670    -0.73100
O310        O  0.36032601  0.08049398  0.79166714    -0.73700
O311        O  0.38186724  0.13295657  0.73234613    -0.73100
O312        O  0.41861580  0.10983586  0.83597132    -0.73800
O313        O  0.35381822  0.11688443  0.73603909    -0.73200
O314        O  0.41823364  0.13405389  0.79368797    -0.73700
O315        O  0.38360454  0.16771436  0.79414267    -0.73600
O316        O  0.36297476  0.16814269  0.84305566    -0.73400
C317        C  0.38140759  0.12173640  0.92617370     0.78400
C318        C  0.37288891  0.06929821  0.80710935     0.78900
C319        C  0.32143245  0.12239779  0.84478693     0.77900
C320        C  0.36714820  0.12507916  0.71627252     0.78200
C321        C  0.42755572  0.12184006  0.81431597     0.79400
C322        C  0.37246179  0.17699139  0.81698390     0.78400
Zn323      Zn  0.10817064  0.13529556  0.41037152     1.49700
Zn324      Zn  0.14289772  0.13391611  0.47133371     1.49400
Zn325      Zn  0.10753381  0.10410087  0.47608560     1.49100
Zn326      Zn  0.13779795  0.10023764  0.40805806     1.49500
O327        O  0.12420596  0.11843876  0.44156130    -1.82900
O328        O  0.11375481  0.16326834  0.42201424    -0.73500
O329        O  0.14214724  0.12601174  0.52801626    -0.73300
O330        O  0.07910686  0.10885539  0.46671795    -0.72800
O331        O  0.13590436  0.16256671  0.46849597    -0.73500
O332        O  0.07974712  0.13067958  0.41979462    -0.73100
O333        O  0.11378078  0.11044220  0.53039745    -0.73700
O334        O  0.13655450  0.07237562  0.42954222    -0.73100
O335        O  0.16994193  0.13198682  0.44712012    -0.73800
O336        O  0.11264306  0.07565877  0.47197445    -0.73200
O337        O  0.16555806  0.10958742  0.40174829    -0.73700
O338        O  0.12696230  0.10130535  0.35381221    -0.73600
O339        O  0.11244557  0.13017881  0.35453996    -0.73400
C340        C  0.12455335  0.17202651  0.44626406     0.78400
C341        C  0.12856283  0.11772978  0.54714200     0.78900
C342        C  0.07034614  0.11983700  0.44289561     0.77900
C343        C  0.12492759  0.06508117  0.45437388     0.78200
C344        C  0.17620562  0.12232244  0.41829065     0.79400
C345        C  0.11892625  0.11549898  0.33623921     0.78400
Zn346      Zn  0.14189643  0.13860890  0.90712848     1.49700
Zn347      Zn  0.11232435  0.10308071  0.91384898     1.49400
Zn348      Zn  0.14631947  0.11039762  0.97735779     1.49100
Zn349      Zn  0.11006861  0.13874766  0.97223143     1.49500
O350        O  0.12752697  0.12252548  0.94251708    -1.82900
O351        O  0.13433148  0.13258492  0.85330584    -0.73500
O352        O  0.11661377  0.07625113  0.93762997    -0.73300
O353        O  0.17453386  0.11316488  0.95954362    -0.72800
O354        O  0.11964804  0.10375540  0.85691076    -0.73500
O355        O  0.17028894  0.13237139  0.90895087    -0.73100
O356        O  0.13995633  0.08211188  0.98048098    -0.73700
O357        O  0.11359296  0.13335369  0.02834031    -0.73100
O358        O  0.08314773  0.10888119  0.91757297    -0.73800
O359        O  0.14272128  0.11943247  0.03203777    -0.73200
O360        O  0.08200107  0.13335651  0.95919021    -0.73700
O361        O  0.11570832  0.16719811  0.96350479    -0.73600
O362        O  0.13822794  0.16712879  0.91786920    -0.73400
C363        C  0.12718949  0.11753650  0.83720565     0.78400
C364        C  0.12789622  0.07052661  0.96459071     0.78900
C365        C  0.18126150  0.12211529  0.93032623     0.77900
C366        C  0.12758152  0.12642473  0.04811154     0.78200
C367        C  0.07343554  0.12115735  0.93732987     0.79400
C368        C  0.12730697  0.17628075  0.94127745     0.78400
Zn369      Zn  0.86287466  0.40349945  0.40760893     1.49700
Zn370      Zn  0.85552528  0.36849362  0.46683617     1.49400
Zn371      Zn  0.88941815  0.36586510  0.40564339     1.49100
Zn372      Zn  0.89303954  0.39496703  0.47434162     1.49500
O373        O  0.87506354  0.38325811  0.43855663    -1.82900
O374        O  0.83400359  0.39782165  0.40314029    -0.73500
O375        O  0.86102365  0.33966080  0.46214239    -0.73300
O376        O  0.88359728  0.37167385  0.35079613    -0.72800
O377        O  0.82866199  0.37320227  0.44322985    -0.73500
O378        O  0.87225162  0.40198673  0.35226620    -0.73100
O379        O  0.88403678  0.33792274  0.41759464    -0.73700
O380        O  0.92111581  0.39059342  0.45975109    -0.73100
O381        O  0.85733691  0.37446183  0.52432342    -0.73800
O382        O  0.91795789  0.36915118  0.41239407    -0.73200
O383        O  0.88812679  0.38456555  0.52684580    -0.73700
O384        O  0.88817594  0.42353079  0.47866507    -0.73600
O385        O  0.86708209  0.43035168  0.43214665    -0.73400
C386        C  0.82260558  0.38512755  0.41764265     0.78400
C387        C  0.87268151  0.32974047  0.44148198     0.78900
C388        C  0.87815647  0.38709682  0.33357502     0.77900
C389        C  0.92851353  0.37937883  0.43457688     0.78200
C390        C  0.87265312  0.37881477  0.54350697     0.79400
C391        C  0.87742784  0.43564894  0.46093533     0.78400
Zn392      Zn  0.89215116  0.39249814  0.97478250     1.49700
Zn393      Zn  0.86166533  0.39973441  0.90877393     1.49400
Zn394      Zn  0.88974741  0.36301893  0.90613640     1.49100
Zn395      Zn  0.85538762  0.36396882  0.96870740     1.49500
O396        O  0.87449850  0.37968466  0.93964657    -1.82900
O397        O  0.89061742  0.42135930  0.97134500    -0.73500
O398        O  0.86819126  0.39723307  0.85213425    -0.73300
O399        O  0.91855493  0.36462574  0.91714067    -0.72800
O400        O  0.86741093  0.42702582  0.92847277    -0.73500
O401        O  0.91985805  0.38473123  0.96694330    -0.73100
O402        O  0.88520415  0.36978270  0.85086510    -0.73700
O403        O  0.85990009  0.33497383  0.95940571    -0.73100
O404        O  0.83298459  0.39534136  0.91053706    -0.73800
O405        O  0.88235230  0.33526659  0.91358663    -0.73200
O406        O  0.82808117  0.37012534  0.94935771    -0.73700
O407        O  0.85743151  0.36941052  0.02661900    -0.73600
O408        O  0.88455123  0.38708726  0.02839981    -0.73400
C409        C  0.87960235  0.43312186  0.95345935     0.78400
C410        C  0.87674804  0.38374713  0.83349137     0.78900
C411        C  0.92824166  0.37379492  0.94258950     0.77900
C412        C  0.87090708  0.32601352  0.93575155     0.78200
C413        C  0.82164312  0.38299939  0.92609058     0.79400
C414        C  0.87044373  0.37877246  0.04536205     0.78400
Zn415      Zn  0.86154563  0.64235726  0.09644060     1.49700
Zn416      Zn  0.89029268  0.64011715  0.02628651     1.49400
Zn417      Zn  0.88998152  0.60621661  0.08996099     1.49100
Zn418      Zn  0.85393655  0.61137864  0.03155489     1.49500
O419        O  0.87404483  0.62486498  0.06092501    -1.82900
O420        O  0.86666511  0.67030119  0.08424610    -0.73500
O421        O  0.91850242  0.63366658  0.03331368    -0.73300
O422        O  0.88485442  0.60820746  0.14763637    -0.72800
O423        O  0.88746359  0.66887145  0.03563985    -0.73500
O424        O  0.86993851  0.63688238  0.14987686    -0.73100
O425        O  0.91858232  0.61198111  0.08069457    -0.73700
O426        O  0.86026844  0.58303590  0.03040891    -0.73100
O427        O  0.88282169  0.63529289  0.97144505    -0.73800
O428        O  0.88509800  0.57869978  0.07073579    -0.73200
O429        O  0.85490251  0.61898703  0.97548303    -0.73700
O430        O  0.82677792  0.61535091  0.05419803    -0.73600
O431        O  0.83283612  0.63832142  0.09733024    -0.73400
C432        C  0.87733528  0.67864886  0.05936775     0.78400
C433        C  0.92764066  0.62274973  0.05676015     0.78900
C434        C  0.87757168  0.62231798  0.16668750     0.77900
C435        C  0.87304387  0.57215486  0.04594901     0.78200
C436        C  0.86809331  0.62733014  0.95562612     0.79400
C437        C  0.82097010  0.62697926  0.08041271     0.78400
Zn438      Zn  0.88560691  0.64384475  0.52778247     1.49700
Zn439      Zn  0.85443668  0.64661001  0.59381447     1.49400
Zn440      Zn  0.84956534  0.61380722  0.53005598     1.49100
Zn441      Zn  0.88466249  0.61087824  0.59144323     1.49500
O442        O  0.86856198  0.62866285  0.56074985    -1.82900
O443        O  0.88089379  0.67274448  0.53309813    -0.73500
O444        O  0.82567952  0.64190412  0.59121162    -0.73300
O445        O  0.85283959  0.61973070  0.47300687    -0.72800
O446        O  0.85923161  0.67492113  0.58013762    -0.73500
O447        O  0.88031432  0.63686621  0.47326313    -0.73100
O448        O  0.82164746  0.61819278  0.54868978    -0.73700
O449        O  0.88079428  0.58299925  0.57341117    -0.73100
O450        O  0.86078055  0.64107848  0.64891882    -0.73800
O451        O  0.85518006  0.58508936  0.53441804    -0.73200
O452        O  0.87717014  0.61312688  0.64771966    -0.73700
O453        O  0.91367030  0.61699638  0.58571102    -0.73600
O454        O  0.91405100  0.63869033  0.53850531    -0.73400
C455        C  0.86999562  0.68292341  0.55482885     0.78400
C456        C  0.81469560  0.62994057  0.57359588     0.78900
C457        C  0.86683589  0.62801189  0.45516774     0.77900
C458        C  0.86833096  0.57508230  0.55108751     0.78200
C459        C  0.86837082  0.62656169  0.66617337     0.79400
C460        C  0.92303295  0.62794890  0.56254320     0.78400
Zn461      Zn  0.64052096  0.64111477  0.15038682     1.49700
Zn462      Zn  0.61317423  0.60389489  0.15953241     1.49400
Zn463      Zn  0.64816135  0.61145819  0.21928921     1.49100
Zn464      Zn  0.61147442  0.63948080  0.21884875     1.49500
O465        O  0.62835164  0.62376806  0.18701790    -1.82900
O466        O  0.63289626  0.63400878  0.09721631    -0.73500
O467        O  0.61857342  0.57698637  0.18161910    -0.73300
O468        O  0.67533700  0.61626175  0.19753777    -0.72800
O469        O  0.61895055  0.60484554  0.10197360    -0.73500
O470        O  0.66941911  0.63812462  0.15191155    -0.73100
O471        O  0.64318491  0.58248247  0.22169032    -0.73700
O472        O  0.61679118  0.63460298  0.27403934    -0.73100
O473        O  0.58425937  0.60905444  0.16633699    -0.73800
O474        O  0.64582508  0.62035887  0.27497669    -0.73200
O475        O  0.58363684  0.63335546  0.20835980    -0.73700
O476        O  0.61493201  0.66815839  0.21005778    -0.73600
O477        O  0.63400577  0.66928981  0.15883181    -0.73400
C478        C  0.62576833  0.61880397  0.08178224     0.78400
C479        C  0.63085119  0.57090656  0.20644835     0.78900
C480        C  0.68123868  0.62749004  0.17068887     0.77900
C481        C  0.63130824  0.62785099  0.29245895     0.78200
C482        C  0.57484327  0.62120408  0.18689960     0.79400
C483        C  0.62395523  0.67780282  0.18448470     0.78400
Zn484      Zn  0.60558664  0.60470861  0.72065762     1.49700
Zn485      Zn  0.63581999  0.60064285  0.65263059     1.49400
Zn486      Zn  0.60724817  0.63636758  0.65547819     1.49100
Zn487      Zn  0.64212724  0.63371131  0.71650659     1.49500
O488        O  0.62281858  0.61894513  0.68664191    -1.82900
O489        O  0.61015092  0.57594817  0.71635326    -0.73500
O490        O  0.62675421  0.60340370  0.59761169    -0.73300
O491        O  0.57867357  0.63183247  0.66262025    -0.72800
O492        O  0.63323367  0.57295199  0.67209741    -0.73500
O493        O  0.57727269  0.61069015  0.71078983    -0.73100
O494        O  0.61292950  0.63257528  0.59978471    -0.73700
O495        O  0.63641507  0.66265312  0.71211492    -0.73100
O496        O  0.66411905  0.60733221  0.64969907    -0.73800
O497        O  0.61245069  0.66412417  0.66930027    -0.73200
O498        O  0.66967891  0.62931239  0.69532575    -0.73700
O499        O  0.64005155  0.62673930  0.77333006    -0.73600
O500        O  0.61185621  0.61080753  0.77528493    -0.73400
C501        C  0.62217906  0.56552616  0.69762154     0.78400
C502        C  0.61970629  0.61830807  0.58071861     0.78900
C503        C  0.56891946  0.62159557  0.68617755     0.77900
C504        C  0.62429662  0.67247300  0.69216211     0.78200
C505        C  0.67561026  0.61879473  0.66739495     0.79400
C506        C  0.62642618  0.61842786  0.79223237     0.78400
Zn507      Zn  0.61161490  0.36145754  0.27641497     1.49700
Zn508      Zn  0.61146285  0.39592407  0.33795223     1.49400
Zn509      Zn  0.64185961  0.36062331  0.34478217     1.49100
Zn510      Zn  0.64770094  0.39112039  0.27853058     1.49500
O511        O  0.62807053  0.37749997  0.30946401    -1.82900
O512        O  0.58289586  0.36552478  0.28666334    -0.73500
O513        O  0.61578400  0.39281584  0.39611318    -0.73300
O514        O  0.63932522  0.33230864  0.32996147    -0.72800
O515        O  0.58272619  0.39021886  0.32774630    -0.73500
O516        O  0.61772405  0.33289882  0.28249181    -0.73100
O517        O  0.63177947  0.36460865  0.39791092    -0.73700
O518        O  0.67581428  0.38642043  0.29720002    -0.73100
O519        O  0.61669957  0.42379177  0.31969273    -0.73800
O520        O  0.67047169  0.36701636  0.34700663    -0.73200
O521        O  0.64233600  0.41972961  0.28151628    -0.73700
O522        O  0.64427014  0.38509260  0.22179465    -0.73600
O523        O  0.61655722  0.36835144  0.22148247    -0.73400
C524        C  0.57363053  0.37774097  0.30723682     0.78400
C525        C  0.62295783  0.37847075  0.41482959     0.78900
C526        C  0.62915755  0.32353278  0.30465433     0.77900
C527        C  0.68208351  0.37695752  0.32631161     0.78200
C528        C  0.62964428  0.43068940  0.29709241     0.79400
C529        C  0.63019917  0.37707289  0.20367892     0.78400
Zn530      Zn  0.61418564  0.35672543  0.77781961     1.49700
Zn531      Zn  0.61456258  0.39327339  0.83534724     1.49400
Zn532      Zn  0.64356814  0.35773173  0.84679571     1.49100
Zn533      Zn  0.65022869  0.38597088  0.77589864     1.49500
O534        O  0.63053957  0.37363302  0.80884834    -1.82900
O535        O  0.58576255  0.36225857  0.78685917    -0.73500
O536        O  0.61875400  0.39244583  0.89355919    -0.73300
O537        O  0.64055268  0.32878103  0.83738324    -0.72800
O538        O  0.58579337  0.38783797  0.82588835    -0.73500
O539        O  0.61909606  0.32833425  0.78966910    -0.73100
O540        O  0.63412698  0.36417321  0.89929302    -0.73700
O541        O  0.67777837  0.38290040  0.79752840    -0.73100
O542        O  0.62070204  0.42024503  0.81439775    -0.73800
O543        O  0.67174164  0.36446995  0.84857578    -0.73200
O544        O  0.64478855  0.41460886  0.77322936    -0.73700
O545        O  0.64771526  0.37725641  0.72033608    -0.73600
O546        O  0.61958597  0.36126436  0.72186074    -0.73400
C547        C  0.57663110  0.37502921  0.80633527     0.78400
C548        C  0.62594253  0.37892719  0.91439085     0.78900
C549        C  0.62990225  0.31941021  0.81371222     0.77900
C550        C  0.68344720  0.37442579  0.82821596     0.78200
C551        C  0.63285566  0.42621938  0.78927576     0.79400
C552        C  0.63348776  0.36904356  0.70308090     0.78400
Zn553      Zn  0.11230988  0.60835520  0.02375423     1.49700
Zn554      Zn  0.11198466  0.63948186  0.09001839     1.49400
Zn555      Zn  0.14268543  0.60420509  0.09048036     1.49100
Zn556      Zn  0.14731108  0.63946862  0.02995030     1.49500
O557        O  0.12873329  0.62306138  0.05850798    -1.82900
O558        O  0.08376946  0.61327975  0.03184411    -0.73500
O559        O  0.11763716  0.63456753  0.14580188    -0.73300
O560        O  0.14026678  0.57602736  0.07112581    -0.72800
O561        O  0.08344867  0.63410921  0.08045421    -0.73500
O562        O  0.11715023  0.57986945  0.02741104    -0.73100
O563        O  0.13470538  0.60704566  0.14603409    -0.73700
O564        O  0.17496560  0.63631290  0.05198808    -0.73100
O565        O  0.11616182  0.66794874  0.07842544    -0.73800
O566        O  0.17089722  0.61115836  0.09129935    -0.73200
O567        O  0.14021299  0.66808576  0.03574315    -0.73700
O568        O  0.14614679  0.63240329  0.97258899    -0.73600
O569        O  0.11950141  0.61389178  0.96976988    -0.73400
C570        C  0.07446168  0.62367923  0.05586052     0.78400
C571        C  0.12613505  0.62082305  0.16386503     0.78900
C572        C  0.12907158  0.56899198  0.04528329     0.77900
C573        C  0.18173270  0.62416487  0.07641591     0.78200
C574        C  0.12769529  0.67709173  0.05616764     0.79400
C575        C  0.13371634  0.62240241  0.95349167     0.78400
Zn576      Zn  0.10715731  0.60638957  0.52309695     1.49700
Zn577      Zn  0.13917235  0.59925847  0.58772874     1.49400
Zn578      Zn  0.14304583  0.63573284  0.52941011     1.49100
Zn579      Zn  0.10936681  0.63534787  0.59299656     1.49500
O580        O  0.12484703  0.61921805  0.55853270    -1.82900
O581        O  0.11173521  0.57782092  0.52238921    -0.73500
O582        O  0.16802203  0.60457441  0.58397656    -0.73300
O583        O  0.13974162  0.63170749  0.47199148    -0.72800
O584        O  0.13407638  0.57166303  0.56687761    -0.73500
O585        O  0.11239085  0.61446679  0.46937879    -0.73100
O586        O  0.17084838  0.63036792  0.54577301    -0.73700
O587        O  0.11533783  0.66376960  0.58469364    -0.73100
O588        O  0.13351385  0.60181170  0.64505025    -0.73800
O589        O  0.13823097  0.66429845  0.53983842    -0.73200
O590        O  0.11574063  0.62881168  0.64815019    -0.73700
O591        O  0.08029715  0.63189939  0.58374943    -0.73600
O592        O  0.07893396  0.61170038  0.53418019    -0.73400
C593        C  0.12288062  0.56594396  0.53971755     0.78400
C594        C  0.17840069  0.61762641  0.56788274     0.78900
C595        C  0.12617655  0.62350384  0.45279470     0.77900
C596        C  0.12686824  0.67317162  0.56282664     0.78200
C597        C  0.12506640  0.61508811  0.66463693     0.79400
C598        C  0.07045342  0.62231119  0.55900844     0.78400
Zn599      Zn  0.11056262  0.35784487  0.47025704     1.49700
Zn600      Zn  0.14003444  0.35507586  0.40260846     1.49400
Zn601      Zn  0.11220425  0.39142685  0.40680139     1.49100
Zn602      Zn  0.14676562  0.38690672  0.46710470     1.49500
O603        O  0.12737086  0.37293559  0.43697138    -1.82900
O604        O  0.11555986  0.32897901  0.46588621    -0.73500
O605        O  0.13300450  0.36078776  0.34853451    -0.73300
O606        O  0.08386898  0.38450250  0.41030257    -0.72800
O607        O  0.13467434  0.32700037  0.41479377    -0.73500
O608        O  0.08240645  0.36218824  0.45641641    -0.73100
O609        O  0.11963957  0.39019100  0.35069917    -0.73700
O610        O  0.14107344  0.41553357  0.46560048    -0.73100
O611        O  0.16859521  0.35935689  0.40353862    -0.73800
O612        O  0.11578455  0.41897755  0.42630155    -0.73200
O613        O  0.17396367  0.38312115  0.44548641    -0.73700
O614        O  0.14486062  0.37921260  0.52332570    -0.73600
O615        O  0.11574477  0.36492134  0.52500036    -0.73400
C616        C  0.12508719  0.31889937  0.44168244     0.78400
C617        C  0.12676903  0.37600286  0.33175931     0.78900
C618        C  0.07410867  0.37287996  0.43131768     0.77900
C619        C  0.12833355  0.42619026  0.44932027     0.78200
C620        C  0.18006308  0.37125469  0.42002552     0.79400
C621        C  0.13056260  0.37204734  0.54207716     0.78400
Zn622      Zn  0.11182563  0.38919876  0.97341209     1.49700
Zn623      Zn  0.14864081  0.36173189  0.96770973     1.49400
Zn624      Zn  0.11340673  0.35878468  0.90634598     1.49100
Zn625      Zn  0.14109087  0.39555262  0.90507898     1.49500
O626        O  0.12889665  0.37611999  0.93800769    -1.82900
O627        O  0.11724283  0.38116138  0.02664991    -0.73500
O628        O  0.14358981  0.33268794  0.96277230    -0.73300
O629        O  0.08445792  0.36204712  0.91593784    -0.72800
O630        O  0.14697640  0.36859285  0.02479315    -0.73500
O631        O  0.08353430  0.38372360  0.96322614    -0.73100
O632        O  0.12014594  0.33114089  0.91870918    -0.73700
O633        O  0.13327687  0.39247325  0.84922756    -0.73100
O634        O  0.17586412  0.36712035  0.94636625    -0.73800
O635        O  0.11894767  0.36347635  0.85035390    -0.73200
O636        O  0.16952064  0.39025421  0.90354833    -0.73700
O637        O  0.13771038  0.42306364  0.92586991    -0.73600
O638        O  0.11760440  0.41776509  0.97473498    -0.73400
C639        C  0.13247302  0.37521872  0.04367394     0.78400
C640        C  0.13198525  0.32283386  0.94167342     0.78900
C641        C  0.07490639  0.37226285  0.93999069     0.77900
C642        C  0.12626659  0.37768903  0.83176593     0.78200
C643        C  0.18142226  0.37875623  0.91991633     0.79400
C644        C  0.12839360  0.42912261  0.95522477     0.78400
Zn645      Zn  0.35888585  0.35723659  0.34824520     1.49700
Zn646      Zn  0.38864401  0.35839112  0.28039549     1.49400
Zn647      Zn  0.35241856  0.38811981  0.28235322     1.49100
Zn648      Zn  0.38761321  0.39344186  0.34285513     1.49500
O649        O  0.37210201  0.37453528  0.31324229    -1.82900
O650        O  0.36339872  0.32926621  0.33675310    -0.73500
O651        O  0.38284012  0.36404779  0.22522750    -0.73300
O652        O  0.32482157  0.38227290  0.29984482    -0.72800
O653        O  0.38398811  0.32928053  0.28790303    -0.73500
O654        O  0.33037125  0.36123538  0.34678061    -0.73100
O655        O  0.35626024  0.38264590  0.22590549    -0.73700
O656        O  0.38135176  0.42126864  0.32500922    -0.73100
O657        O  0.41700392  0.36476160  0.28969262    -0.73800
O658        O  0.35596618  0.41689044  0.28632751    -0.73200
O659        O  0.41655988  0.38834239  0.33368387    -0.73700
O660        O  0.38213215  0.39068626  0.40062117    -0.73600
O661        O  0.36591451  0.36274086  0.40221462    -0.73400
C662        C  0.37328696  0.32012923  0.31175940     0.78400
C663        C  0.36957547  0.37353714  0.20784305     0.78900
C664        C  0.31868121  0.37150716  0.32708204     0.77900
C665        C  0.36819818  0.42807821  0.30266288     0.78200
C666        C  0.42586799  0.37679553  0.31152436     0.79400
C667        C  0.37378442  0.37703765  0.41941460     0.78400
Zn668      Zn  0.39140991  0.35988988  0.84401398     1.49700
Zn669      Zn  0.39146888  0.39044851  0.77724692     1.49400
Zn670      Zn  0.35449618  0.36235105  0.78539736     1.49100
Zn671      Zn  0.36195543  0.39636733  0.84615174     1.49500
O672        O  0.37470662  0.37710440  0.81346861    -1.82900
O673        O  0.42033950  0.36310261  0.83164177    -0.73500
O674        O  0.38547825  0.38187747  0.72391683    -0.73300
O675        O  0.35849659  0.33350660  0.79428778    -0.72800
O676        O  0.41999823  0.38587596  0.78655118    -0.73500
O677        O  0.38410836  0.33207378  0.83342091    -0.73100
O678        O  0.35667810  0.36705507  0.72769342    -0.73700
O679        O  0.33306630  0.39213016  0.84665664    -0.73100
O680        O  0.38665803  0.41915500  0.77831140    -0.73800
O681        O  0.32709922  0.36882372  0.80422048    -0.73200
O682        O  0.36644989  0.42414201  0.82711157    -0.73700
O683        O  0.36972472  0.39220877  0.90150575    -0.73600
O684        O  0.38741339  0.36504353  0.90073773    -0.73400
C685        C  0.42932004  0.37432303  0.80842239     0.78400
C686        C  0.37077115  0.37396730  0.70804256     0.78900
C687        C  0.37090137  0.32371614  0.81358637     0.77900
C688        C  0.32117204  0.38084668  0.82959183     0.78200
C689        C  0.37645682  0.43054191  0.79890588     0.79400
C690        C  0.37870395  0.37856491  0.91903807     0.78400
Zn691      Zn  0.38985608  0.63745792  0.15627630     1.49700
Zn692      Zn  0.39112028  0.60741275  0.22361815     1.49400
Zn693      Zn  0.35536986  0.63654565  0.21761183     1.49100
Zn694      Zn  0.36018538  0.60128813  0.15716686     1.49500
O695        O  0.37395766  0.62070584  0.18842190    -1.82900
O696        O  0.41861059  0.63204375  0.16295821    -0.73500
O697        O  0.38566636  0.61519612  0.27718988    -0.73300
O698        O  0.36197147  0.66516728  0.21242381    -0.72800
O699        O  0.41939152  0.61170104  0.21237496    -0.73500
O700        O  0.38585505  0.66578666  0.16948228    -0.73100
O701        O  0.35685037  0.62985573  0.27448169    -0.73700
O702        O  0.33155292  0.60778108  0.15747983    -0.73100
O703        O  0.38574164  0.57901293  0.22411630    -0.73800
O704        O  0.32783898  0.63298423  0.19676647    -0.73200
O705        O  0.36384788  0.57333235  0.17852620    -0.73700
O706        O  0.36707618  0.60455952  0.10037474    -0.73600
O707        O  0.38239898  0.63313780  0.10110334    -0.73400
C708        C  0.42812066  0.62182269  0.18708744     0.78400
C709        C  0.37077941  0.62229574  0.29371711     0.78900
C710        C  0.37429556  0.67455750  0.19224205     0.77900
C711        C  0.32084299  0.62086520  0.17259084     0.78200
C712        C  0.37443872  0.56738919  0.20647979     0.79400
C713        C  0.37411558  0.61933713  0.08277968     0.78400
Zn714      Zn  0.38432648  0.63956030  0.65453882     1.49700
Zn715      Zn  0.38556071  0.60994040  0.72287407     1.49400
Zn716      Zn  0.34953139  0.63888057  0.71561616     1.49100
Zn717      Zn  0.35626164  0.60290521  0.65603601     1.49500
O718        O  0.36861990  0.62296581  0.68745229    -1.82900
O719        O  0.41291377  0.63434653  0.66131752    -0.73500
O720        O  0.38027216  0.61866793  0.77599600    -0.73300
O721        O  0.35633528  0.66761341  0.70938862    -0.72800
O722        O  0.41366518  0.61385247  0.71047330    -0.73500
O723        O  0.38034641  0.66783876  0.66678809    -0.73100
O724        O  0.35158783  0.63370200  0.77393662    -0.73700
O725        O  0.32802921  0.60942291  0.65258287    -0.73100
O726        O  0.38060402  0.58143514  0.72371485    -0.73800
O727        O  0.32214235  0.63396901  0.69277637    -0.73200
O728        O  0.35953223  0.57513137  0.67715411    -0.73700
O729        O  0.36546255  0.60459028  0.60114813    -0.73600
O730        O  0.37822661  0.63434181  0.59933644    -0.73400
C731        C  0.42236252  0.62383945  0.68497429     0.78400
C732        C  0.36582954  0.62642339  0.79292093     0.78900
C733        C  0.36900736  0.67681837  0.68961317     0.77900
C734        C  0.31642063  0.62187965  0.66705718     0.78200
C735        C  0.37009258  0.56942353  0.70519097     0.79400
C736        C  0.37210895  0.61907344  0.58235130     0.78400
C737        C  0.37433930  0.64007727  0.98118793    -0.26900
C738        C  0.36788273  0.62413867  0.95946051     0.06700
C739        C  0.36319271  0.60665803  0.97851650     0.26300
C740        C  0.36530648  0.60512202  0.01843365    -0.11400
C741        C  0.37217991  0.62094459  0.04025325    -0.25400
C742        C  0.37643725  0.63859741  0.02108232     0.37100
C743        C  0.36716268  0.62532534  0.91684996     0.06700
F744        F  0.35637834  0.59109877  0.95848009    -0.19200
H745        H  0.36158765  0.59146151  0.03225263     0.16500
F746        F  0.38247052  0.65458017  0.04076919    -0.22900
H747        H  0.37813993  0.65364836  0.96711176     0.18300
C748        C  0.35712884  0.64033692  0.89750494     0.26300
C749        C  0.35630276  0.64058245  0.85713689    -0.11400
C750        C  0.36592169  0.62620817  0.83556263    -0.25400
C751        C  0.37638254  0.61157178  0.85519205     0.37200
C752        C  0.37686578  0.61115673  0.89519672    -0.27100
F753        F  0.34790355  0.65453698  0.91759122    -0.19200
H754        H  0.34841115  0.65216475  0.84274150     0.16500
F755        F  0.38595067  0.59734526  0.83576748    -0.22900
H756        H  0.38502594  0.59970124  0.90942649     0.18300
C757        C  0.35632250  0.63069767  0.39770216    -0.26900
C758        C  0.36997168  0.61897469  0.41685358     0.06700
C759        C  0.38333970  0.60801220  0.39556083     0.26300
C760        C  0.38335042  0.60918259  0.35562609    -0.11400
C761        C  0.36992414  0.62115471  0.33611251    -0.25400
C762        C  0.35613918  0.63171176  0.35758494     0.37100
C763        C  0.37074841  0.61879668  0.45907540     0.06700
F764        F  0.39678512  0.59667686  0.41346506    -0.19200
H765        H  0.39403270  0.60068102  0.33994667     0.16500
F766        F  0.34277756  0.64326400  0.34004369    -0.22900
H767        H  0.34583332  0.63915679  0.41398365     0.18300
C768        C  0.37469102  0.63602436  0.47925599     0.26300
C769        C  0.37552268  0.63584982  0.51925475    -0.11400
C770        C  0.37227447  0.61853270  0.53987863    -0.25400
C771        C  0.36858660  0.60117757  0.51942608     0.37200
C772        C  0.36793474  0.60137441  0.47930521    -0.27100
F773        F  0.37799757  0.65295397  0.46017461    -0.19200
H774        H  0.37844802  0.64943932  0.53411670     0.16500
F775        F  0.36563811  0.58404549  0.53800769    -0.22900
H776        H  0.36500868  0.58792648  0.46391154     0.18300
C777        C  0.38993595  0.47927366  0.75511768    -0.26900
C778        C  0.37263416  0.48980352  0.75982567     0.06700
C779        C  0.35699719  0.48128170  0.77965509     0.26300
C780        C  0.35860196  0.46227002  0.79399858    -0.11400
C781        C  0.37572476  0.45142264  0.78824549    -0.25400
C782        C  0.39148124  0.46020927  0.76889533     0.37100
C783        C  0.37141103  0.51001323  0.74554682     0.06700
F784        F  0.34017937  0.49132481  0.78485481    -0.19200
H785        H  0.34620340  0.45578464  0.80845670     0.16500
F786        F  0.40840000  0.45037344  0.76331135    -0.22900
H787        H  0.40223547  0.48582412  0.74042678     0.18300
C788        C  0.37906667  0.52520661  0.76771964     0.26300
C789        C  0.37845615  0.54429747  0.75414919    -0.11400
C790        C  0.37022921  0.54874740  0.71805532    -0.25400
C791        C  0.36250312  0.53341105  0.69573653     0.37200
C792        C  0.36312786  0.51417758  0.70952645    -0.27100
F793        F  0.38713794  0.52155422  0.80262885    -0.19200
H794        H  0.38442955  0.55567830  0.77226440     0.16500
F795        F  0.35471449  0.53687361  0.66051712    -0.22900
H796        H  0.35730574  0.50248199  0.69198923     0.18300
C797        C  0.38741444  0.37226194  0.60486307    -0.26900
C798        C  0.37033674  0.37741488  0.58528912     0.06700
C799        C  0.35302007  0.38027721  0.60605854     0.26300
C800        C  0.35295320  0.37825155  0.64607495    -0.11400
C801        C  0.37017451  0.37353094  0.66575973    -0.25400
C802        C  0.38738775  0.37030737  0.64476893     0.37100
C803        C  0.37046909  0.37838236  0.54298974     0.06700
F804        F  0.33637190  0.38553263  0.58767747    -0.19200
H805        H  0.33961409  0.38106200  0.66183718     0.16500
F806        F  0.40413150  0.36508804  0.66288543    -0.22900
H807        H  0.40077041  0.36955543  0.58906084     0.18300
C808        C  0.38177939  0.39223772  0.52334866     0.26300
C809        C  0.38276387  0.39190712  0.48313480    -0.11400
C810        C  0.37261905  0.37765796  0.46202093    -0.25400
C811        C  0.36098859  0.36403665  0.48214240     0.37200
C812        C  0.35997820  0.36450697  0.52210916    -0.27100
F813        F  0.39173618  0.40610671  0.54309188    -0.19200
H814        H  0.39161427  0.40270851  0.46854666     0.16500
F815        F  0.35050760  0.35017398  0.46343653    -0.22900
H816        H  0.35123859  0.35369209  0.53697529     0.18300
C817        C  0.36992231  0.39253290  0.10608973    -0.26900
C818        C  0.37344176  0.37540639  0.08503689     0.06700
C819        C  0.37531263  0.35763412  0.10487353     0.26300
C820        C  0.37382728  0.35713868  0.14487781    -0.11400
C821        C  0.37007145  0.37420320  0.16568306    -0.25400
C822        C  0.36808894  0.39196113  0.14605483     0.37100
C823        C  0.37499760  0.37621480  0.04253861     0.06700
F824        F  0.37815812  0.34069388  0.08558798    -0.19200
H825        H  0.37543656  0.34332731  0.15971064     0.16500
F826        F  0.36525319  0.40883325  0.16563640    -0.22900
H827        H  0.36884797  0.40646872  0.09154143     0.18300
C828        C  0.36102072  0.38632305  0.02073420     0.26300
C829        C  0.36266812  0.38731651  0.98082372    -0.11400
C830        C  0.37807436  0.37803293  0.96159904    -0.25400
C831        C  0.39195459  0.36766529  0.98335327     0.37200
C832        C  0.39047382  0.36695493  0.02345631    -0.27100
F833        F  0.34540954  0.39475555  0.03791279    -0.19200
H834        H  0.35150024  0.39501421  0.96478496     0.16500
F835        F  0.40707133  0.35844898  0.96603659    -0.22900
H836        H  0.40156220  0.35925054  0.03970898     0.18300
C837        C  0.35234130  0.47672585  0.26048812    -0.26900
C838        C  0.36910828  0.48816751  0.26586783     0.06700
C839        C  0.38484113  0.48012926  0.28671915     0.26300
C840        C  0.38400463  0.46096482  0.30034807    -0.11400
C841        C  0.36763429  0.44922490  0.29329822    -0.25400
C842        C  0.35156038  0.45750017  0.27383360     0.37100
C843        C  0.37013192  0.50839429  0.25003614     0.06700
F844        F  0.40147298  0.49044047  0.29247132    -0.19200
H845        H  0.39662273  0.45504129  0.31508924     0.16500
F846        F  0.33510720  0.44700166  0.26725133    -0.22900
H847        H  0.33973195  0.48267422  0.24575759     0.18300
C848        C  0.36368800  0.51290027  0.21246858     0.26300
C849        C  0.36510378  0.53200740  0.19821298    -0.11400
C850        C  0.37320783  0.54694599  0.22075933    -0.25400
C851        C  0.37957222  0.54235303  0.25834613     0.37200
C852        C  0.37780866  0.52345741  0.27269382    -0.27100
F853        F  0.35644663  0.49879159  0.18913572    -0.19200
H854        H  0.36004093  0.53507091  0.16928548     0.16500
F855        F  0.38707991  0.55621360  0.28197419    -0.22900
H856        H  0.38232075  0.52067339  0.30207182     0.18300
C857        C  0.22580200  0.38565755  0.85650524    -0.26900
C858        C  0.24078996  0.37860341  0.87997774     0.06700
C859        C  0.23627178  0.37145118  0.91679530     0.26300
C860        C  0.21694569  0.37135615  0.92977083    -0.11400
C861        C  0.20191531  0.37872630  0.90648312    -0.25400
C862        C  0.20658267  0.38584493  0.86953078     0.37100
C863        C  0.26115637  0.37940032  0.86625011     0.06700
F864        F  0.25053120  0.36435385  0.93995326    -0.19200
H865        H  0.21377272  0.36572453  0.95814723     0.16500
F866        F  0.19255708  0.39271294  0.84552419    -0.22900
H867        H  0.22905331  0.39128946  0.82814929     0.18300
C868        C  0.26693480  0.36942735  0.83288543     0.26300
C869        C  0.28635086  0.37023367  0.82055524    -0.11400
C870        C  0.30026173  0.38125210  0.84092018    -0.25400
C871        C  0.29413153  0.39176694  0.87367277     0.37200
C872        C  0.27483972  0.39066134  0.88620951    -0.27100
F873        F  0.25390751  0.35850080  0.81287253    -0.19200
H874        H  0.29053501  0.36204062  0.79525694     0.16500
F875        F  0.30678969  0.40283475  0.89428385    -0.22900
H876        H  0.27051369  0.39871411  0.91161499     0.18300
C877        C  0.11397964  0.37010104  0.64579816    -0.26900
C878        C  0.13151133  0.37294723  0.66578865     0.06700
C879        C  0.14893614  0.37497222  0.64487871     0.26300
C880        C  0.14858838  0.37470465  0.60463590    -0.11400
C881        C  0.13095042  0.37208886  0.58463157    -0.25400
C882        C  0.11362455  0.36959928  0.60577388     0.37100
C883        C  0.13112412  0.37386998  0.70834059     0.06700
F884        F  0.16630310  0.37676203  0.66328670    -0.19200
H885        H  0.16217483  0.37634645  0.58911691     0.16500
F886        F  0.09618040  0.36715702  0.58792765    -0.22900
H887        H  0.10037653  0.36857341  0.66131367     0.18300
C888        C  0.13938971  0.38964608  0.72834742     0.26300
C889        C  0.13752971  0.39094609  0.76832547    -0.11400
C890        C  0.12734475  0.37660749  0.78914243    -0.25400
C891        C  0.11914601  0.36078266  0.76887968     0.37200
C892        C  0.12106900  0.35950325  0.72902958    -0.27100
F893        F  0.14864833  0.40415879  0.70915795    -0.19200
H894        H  0.14409406  0.40324396  0.78298142     0.16500
F895        F  0.10916529  0.34650738  0.78733408    -0.22900
H896        H  0.11456033  0.34723514  0.71415170     0.18300
C897        C  0.13469010  0.36141533  0.22823158    -0.26900
C898        C  0.13319617  0.37931343  0.20926033     0.06700
C899        C  0.12932384  0.39627055  0.23063830     0.26300
C900        C  0.12693944  0.39514459  0.27048371    -0.11400
C901        C  0.12842666  0.37714350  0.28950911    -0.25400
C902        C  0.13237879  0.36025282  0.26784961     0.37100
C903        C  0.13412629  0.37967813  0.16693213     0.06700
F904        F  0.12808195  0.41387818  0.21303863    -0.19200
H905        H  0.12415912  0.40842164  0.28652342     0.16500
F906        F  0.13368565  0.34247403  0.28472205    -0.22900
H907        H  0.13721650  0.34811965  0.21208355     0.18300
C908        C  0.14949389  0.37063124  0.14705584     0.26300
C909        C  0.14898180  0.36921111  0.10697337    -0.11400
C910        C  0.13312482  0.37670765  0.08613579    -0.25400
C911        C  0.11793951  0.38611903  0.10634110     0.37200
C912        C  0.11853961  0.38753430  0.14621071    -0.27100
F913        F  0.16494949  0.36315998  0.16647479    -0.19200
H914        H  0.16095421  0.36208744  0.09226857     0.16500
F915        F  0.10234257  0.39390169  0.08784059    -0.22900
H916        H  0.10640864  0.39430703  0.16111789     0.18300
C917        C  0.26508240  0.38496349  0.33492245    -0.26900
C918        C  0.25917037  0.37273409  0.36500790     0.06700
C919        C  0.27254407  0.35970105  0.38127598     0.26300
C920        C  0.29162200  0.35901310  0.36783776    -0.11400
C921        C  0.29781432  0.37135255  0.33791888    -0.25400
C922        C  0.28425452  0.38427120  0.32127276     0.37100
C923        C  0.23888224  0.37285954  0.37866621     0.06700
F924        F  0.26722278  0.34793918  0.41084179    -0.19200
H925        H  0.30164903  0.34897260  0.38148856     0.16500
F926        F  0.28952582  0.39644132  0.29236932    -0.22900
H927        H  0.25479345  0.39494748  0.32188074     0.18300
C928        C  0.23077285  0.38940471  0.39616793     0.26300
C929        C  0.21180935  0.38867463  0.41091314    -0.11400
C930        C  0.20064557  0.37155667  0.40770310    -0.25400
C931        C  0.20885393  0.35512300  0.38967541     0.37200
C932        C  0.22781107  0.35580662  0.37559650    -0.27100
F933        F  0.24129416  0.40607674  0.39951056    -0.19200
H934        H  0.20570387  0.40161346  0.42407783     0.16500
F935        F  0.19863236  0.33829318  0.38580609    -0.22900
H936        H  0.23391536  0.34294674  0.36210008     0.18300
C937        C  0.22878725  0.63752967  0.59034943    -0.26900
C938        C  0.23809299  0.62092947  0.60492942     0.06700
C939        C  0.22824146  0.60299689  0.60453036     0.26300
C940        C  0.20906203  0.60187388  0.59110761    -0.11400
C941        C  0.19947568  0.61854026  0.57718356    -0.25400
C942        C  0.20970348  0.63636688  0.57616592     0.37100
C943        C  0.25814528  0.62218951  0.62027312     0.06700
F944        F  0.23700702  0.58669109  0.61824976    -0.19200
H945        H  0.20157437  0.58797905  0.59219505     0.16500
F946        F  0.20099970  0.65286075  0.56320519    -0.22900
H947        H  0.23630412  0.65141978  0.59015014     0.18300
C948        C  0.27341817  0.61291465  0.60095283     0.26300
C949        C  0.29216624  0.61302870  0.61649088    -0.11400
C950        C  0.29616365  0.62236272  0.65174304    -0.25400
C951        C  0.28084309  0.63201250  0.67076911     0.37200
C952        C  0.26198657  0.63192016  0.65499784    -0.27100
F953        F  0.27016872  0.60378239  0.56691584    -0.19200
H954        H  0.30364159  0.60576673  0.60062853     0.16500
F955        F  0.28391994  0.64106502  0.70491423    -0.22900
H956        H  0.25025149  0.63908588  0.67029669     0.18300
C957        C  0.14331574  0.47590288  0.48639875    -0.26900
C958        C  0.12576632  0.48630639  0.48387557     0.06700
C959        C  0.10945339  0.47726182  0.46681282     0.26300
C960        C  0.11056744  0.45792913  0.45421963    -0.11400
C961        C  0.12788708  0.44724315  0.45853092    -0.25400
C962        C  0.14441907  0.45659824  0.47396771     0.37100
C963        C  0.12468876  0.50653265  0.49896129     0.06700
F964        F  0.09220013  0.48680278  0.46375501    -0.19200
H965        H  0.09764150  0.45110329  0.44237031     0.16500
F966        F  0.16170494  0.44711718  0.47708620    -0.22900
H967        H  0.15624666  0.48274852  0.49816140     0.18300
C968        C  0.13201832  0.51130789  0.53566183     0.26300
C969        C  0.13133920  0.53056332  0.54905769    -0.11400
C970        C  0.12314538  0.54536949  0.52633763    -0.25400
C971        C  0.11573517  0.54045992  0.48965634     0.37200
C972        C  0.11659611  0.52131832  0.47626288    -0.27100
F973        F  0.13953932  0.49729643  0.55886044    -0.19200
H974        H  0.13712446  0.53385926  0.57728655     0.16500
F975        F  0.10816274  0.55422774  0.46594447    -0.22900
H976        H  0.11124291  0.51812430  0.44764787     0.18300
C977        C  0.12985604  0.60101786  0.85351478    -0.26900
C978        C  0.13460239  0.61710872  0.83051684     0.06700
C979        C  0.14065971  0.63451902  0.84836917     0.26300
C980        C  0.14123445  0.63597153  0.88849457    -0.11400
C981        C  0.13551175  0.62020587  0.91141776    -0.25400
C982        C  0.13021663  0.60252054  0.89358458     0.37100
C983        C  0.13200964  0.61611527  0.78819124     0.06700
F984        F  0.14580905  0.65019774  0.82692194    -0.19200
H985        H  0.14541664  0.64967497  0.90164676     0.16500
F986        F  0.12525530  0.58671696  0.91494597    -0.22900
H987        H  0.12519077  0.58745134  0.84040170     0.18300
C988        C  0.14082287  0.60140895  0.76611903     0.26300
C989        C  0.13821417  0.60092687  0.72615457    -0.11400
C990        C  0.12669345  0.61500623  0.70738728    -0.25400
C991        C  0.11765600  0.62954262  0.72986829     0.37200
C992        C  0.12030748  0.62998464  0.76968629    -0.27100
F993        F  0.15242146  0.58787468  0.78303196    -0.19200
H994        H  0.14551456  0.58964837  0.70980989     0.16500
F995        F  0.10638812  0.64353582  0.71357017    -0.22900
H996        H  0.11311597  0.64125899  0.78626893     0.18300
C997        C  0.13749655  0.63734722  0.34956096    -0.26900
C998        C  0.12646655  0.62347671  0.32950366     0.06700
C999        C  0.11521379  0.60993511  0.34980364     0.26300
C1000       C  0.11507905  0.61023578  0.38984481    -0.11400
C1001       C  0.12634580  0.62390484  0.41032358    -0.25400
C1002       C  0.13757732  0.63753706  0.38974984     0.37100
C1003       C  0.12673953  0.62304708  0.28732558     0.06700
F1004       F  0.10428134  0.59652141  0.33081491    -0.19200
H1005       H  0.10629731  0.59953044  0.40485705     0.16500
F1006       F  0.14841853  0.65115188  0.40832472    -0.22900
H1007       H  0.14618330  0.64791973  0.33399164     0.18300
C1008       C  0.11653598  0.63706358  0.26612383     0.26300
C1009       C  0.11625154  0.63609485  0.22606760    -0.11400
C1010       C  0.12631325  0.62124073  0.20647479    -0.25400
C1011       C  0.13690284  0.60742314  0.22808533     0.37200
C1012       C  0.13689306  0.60828010  0.26819382    -0.27100
F1013       F  0.10661868  0.65148197  0.28424700    -0.19200
H1014       H  0.10811984  0.64706242  0.21038697     0.16500
F1015       F  0.14745516  0.59323312  0.21068920    -0.22900
H1016       H  0.14494275  0.59745415  0.28446776     0.18300
C1017       C  0.26767791  0.63692868  0.16274388    -0.26900
C1018       C  0.26143153  0.62523021  0.13197425     0.06700
C1019       C  0.27466400  0.61224887  0.11507413     0.26300
C1020       C  0.29370329  0.61081838  0.12890749    -0.11400
C1021       C  0.30011835  0.62229352  0.15999110    -0.25400
C1022       C  0.28683736  0.63547957  0.17681718     0.37100
C1023       C  0.24091926  0.62559276  0.11852527     0.06700
F1024       F  0.26916138  0.60101570  0.08481955    -0.19200
H1025       H  0.30351648  0.60073564  0.11481653     0.16500
F1026       F  0.29223336  0.64683454  0.20695504    -0.22900
H1027       H  0.25758639  0.64692528  0.17632094     0.18300
C1028       C  0.22956417  0.60864068  0.12102280     0.26300
C1029       C  0.21059844  0.60836830  0.10661031    -0.11400
C1030       C  0.20243045  0.62493273  0.08908933    -0.25400
C1031       C  0.21380052  0.64201991  0.08661189     0.37200
C1032       C  0.23286696  0.64232693  0.10151456    -0.27100
F1033       F  0.23681543  0.59231609  0.13777151    -0.19200
H1034       H  0.20224865  0.59502201  0.10922847     0.16500
F1035       F  0.20641629  0.65848070  0.07065637    -0.22900
H1036       H  0.24146935  0.65552975  0.09928309     0.18300
C1037       C  0.14433394  0.51557644  0.03718820    -0.26900
C1038       C  0.13247039  0.50920396  0.00662740     0.06700
C1039       C  0.11922322  0.52236567  0.99016220     0.26300
C1040       C  0.11813213  0.54148958  0.00349476    -0.11400
C1041       C  0.13010030  0.54810082  0.03376394    -0.25400
C1042       C  0.14327778  0.53484708  0.05060081     0.37100
C1043       C  0.13311018  0.48864560  0.99323174     0.06700
F1044       F  0.10685588  0.51659884  0.96185262    -0.19200
H1045       H  0.10778324  0.55119049  0.98976130     0.16500
F1046       F  0.15520783  0.54044486  0.07973051    -0.22900
H1047       H  0.15457235  0.50561214  0.05050696     0.18300
C1048       C  0.13461154  0.48401470  0.95385423     0.26300
C1049       C  0.13339673  0.46462036  0.94154008    -0.11400
C1050       C  0.13053699  0.44955059  0.96815452    -0.25400
C1051       C  0.12996522  0.45411053  0.00764680     0.37200
C1052       C  0.13124590  0.47345581  0.01992672    -0.27100
F1053       F  0.13729758  0.49823575  0.92729217    -0.19200
H1054       H  0.13428127  0.46141466  0.91108153     0.16500
F1055       F  0.12844872  0.43983306  0.03449335    -0.22900
H1056       H  0.13027877  0.47662404  0.05038902     0.18300
C1057       C  0.48184919  0.39024786  0.79317117    -0.26900
C1058       C  0.49215541  0.37356164  0.80430733     0.06700
C1059       C  0.48178809  0.35695231  0.81607445     0.26300
C1060       C  0.46137405  0.35729247  0.81768424    -0.11400
C1061       C  0.45096023  0.37403880  0.80666310    -0.25400
C1062       C  0.46146167  0.39046416  0.79379539     0.37100
C1063       C  0.51371853  0.37385367  0.80469930     0.06700
F1064       F  0.49144305  0.34057026  0.82675937    -0.19200
H1065       H  0.45369379  0.34439022  0.82725922     0.16500
F1066       F  0.45209063  0.40694391  0.78270949    -0.22900
H1067       H  0.48965229  0.40314357  0.78392496     0.18300
C1068       C  0.52447817  0.36257267  0.77866619     0.26300
C1069       C  0.54486810  0.36311538  0.77929466    -0.11400
C1070       C  0.55494165  0.37483659  0.80601022    -0.25400
C1071       C  0.54402336  0.38607107  0.83220514     0.37200
C1072       C  0.52362817  0.38563375  0.83124754    -0.27100
F1073       F  0.51524854  0.35129241  0.75224818    -0.19200
H1074       H  0.55278750  0.35435984  0.75861872     0.16500
F1075       F  0.55296590  0.39721005  0.85922695    -0.22900
H1076       H  0.51548931  0.39435338  0.85165785     0.18300
C1077       C  0.52073504  0.36249920  0.29060522    -0.26900
C1078       C  0.51048803  0.37813613  0.30702067     0.06700
C1079       C  0.52116904  0.39359013  0.32331002     0.26300
C1080       C  0.54157144  0.39326027  0.32341896    -0.11400
C1081       C  0.55188843  0.37762387  0.30707887    -0.25400
C1082       C  0.54116133  0.36219874  0.29046707     0.37100
C1083       C  0.48875649  0.37805865  0.30785255     0.06700
F1084       F  0.51188758  0.40926376  0.33842369    -0.19200
H1085       H  0.54931753  0.40545127  0.33605212     0.16500
F1086       F  0.55031121  0.34663013  0.27461904    -0.22900
H1087       H  0.51287999  0.35026869  0.27835566     0.18300
C1088       C  0.47778093  0.37370006  0.27469665     0.26300
C1089       C  0.45739041  0.37325177  0.27623331    -0.11400
C1090       C  0.44747391  0.37740002  0.31059150    -0.25400
C1091       C  0.45840781  0.38191229  0.34365274     0.37200
C1092       C  0.47880863  0.38210704  0.34225112    -0.27100
F1093       F  0.48672927  0.37030266  0.24058635    -0.19200
H1094       H  0.44929288  0.36992398  0.25025187     0.16500
F1095       F  0.44941873  0.38546983  0.37764936    -0.22900
H1096       H  0.48688999  0.38513468  0.36837859     0.18300
C1097       C  0.62229780  0.35835147  0.51591980    -0.26900
C1098       C  0.62431535  0.37526255  0.53808702     0.06700
C1099       C  0.62425840  0.39352584  0.51971178     0.26300
C1100       C  0.62276589  0.39468745  0.47955208    -0.11400
C1101       C  0.62165413  0.37764964  0.45725941    -0.25400
C1102       C  0.62104805  0.35946062  0.47597503     0.37100
C1103       C  0.62687922  0.37352027  0.58019445     0.06700
F1104       F  0.62572765  0.41016272  0.54060926    -0.19200
H1105       H  0.62325934  0.40885505  0.46579692     0.16500
F1106       F  0.61943538  0.34267152  0.45558340    -0.22900
H1107       H  0.62221954  0.34415062  0.52959962     0.18300
C1108       C  0.61296573  0.36370333  0.60248920     0.26300
C1109       C  0.61563654  0.36172239  0.64207755    -0.11400
C1110       C  0.63225403  0.36943201  0.66040946    -0.25400
C1111       C  0.64646833  0.37883514  0.63774242     0.37200
C1112       C  0.64368878  0.38090043  0.59805423    -0.27100
F1113       F  0.59649693  0.35650405  0.58609648    -0.19200
H1114       H  0.60435579  0.35447284  0.65852577     0.16500
F1115       F  0.66291426  0.38626784  0.65379054    -0.22900
H1116       H  0.65476315  0.38818146  0.58110096     0.18300
C1117       C  0.61437750  0.36888317  0.10029273    -0.26900
C1118       C  0.62686727  0.38143818  0.08041589     0.06700
C1119       C  0.64057946  0.39251604  0.10089880     0.26300
C1120       C  0.64180461  0.39087602  0.14093837    -0.11400
C1121       C  0.62928646  0.37825712  0.16112105    -0.25400
C1122       C  0.61541892  0.36732559  0.14021274     0.37100
C1123       C  0.62663144  0.38139833  0.03809753     0.06700
F1124       F  0.65306789  0.40449874  0.08204937    -0.19200
H1125       H  0.65254210  0.39956844  0.15617436     0.16500
F1126       F  0.60298571  0.35490764  0.15810451    -0.22900
H1127       H  0.60387735  0.36006847  0.08465130     0.18300
C1128       C  0.63423925  0.36535173  0.01842929     0.26300
C1129       C  0.63366420  0.36472760  0.97847613    -0.11400
C1130       C  0.62548075  0.38009422  0.95704570    -0.25400
C1131       C  0.61776691  0.39625961  0.97695800     0.37200
C1132       C  0.61841608  0.39685404  0.01727115    -0.27100
F1133       F  0.64244577  0.35033378  0.03800026    -0.19200
H1134       H  0.63982559  0.35208640  0.96431801     0.16500
F1135       F  0.60971738  0.41145841  0.95771794    -0.22900
H1136       H  0.61238055  0.40930650  0.03231652     0.18300
C1137       C  0.51710717  0.62692975  0.65014300    -0.26900
C1138       C  0.50645815  0.62417128  0.68410313     0.06700
C1139       C  0.51650938  0.62095488  0.71880000     0.26300
C1140       C  0.53681795  0.61995373  0.71915769    -0.11400
C1141       C  0.54746953  0.62256741  0.68516958    -0.25400
C1142       C  0.53744788  0.62630800  0.65061642     0.37100
C1143       C  0.48491542  0.62396943  0.68307541     0.06700
F1144       F  0.50669775  0.61910361  0.75245484    -0.19200
H1145       H  0.54426122  0.61742851  0.74620917     0.16500
F1146       F  0.54725138  0.62873487  0.61709938    -0.22900
H1147       H  0.50963930  0.62918993  0.62303059     0.18300
C1148       C  0.47437196  0.63891190  0.66485209     0.26300
C1149       C  0.45401534  0.63857906  0.66488599    -0.11400
C1150       C  0.44385138  0.62343077  0.68321739    -0.25400
C1151       C  0.45445443  0.60823508  0.70056339     0.37200
C1152       C  0.47476596  0.60855153  0.70037344    -0.27100
F1153       F  0.48371173  0.65414105  0.64812885    -0.19200
H1154       H  0.44620217  0.65045141  0.65133183     0.16500
F1155       F  0.44525618  0.59292476  0.71731788    -0.22900
H1156       H  0.48262629  0.59663137  0.71366990     0.18300
C1157       C  0.62343566  0.48073901  0.78637602    -0.26900
C1158       C  0.63041048  0.48568908  0.74960604     0.06700
C1159       C  0.63927461  0.47106931  0.72724745     0.26300
C1160       C  0.64056472  0.45199528  0.74102806    -0.11400
C1161       C  0.63275897  0.44689951  0.77700533    -0.25400
C1162       C  0.62429716  0.46154201  0.79974975     0.37100
C1163       C  0.62799693  0.50590483  0.73461069     0.06700
F1164       F  0.64594271  0.47490744  0.69133107    -0.19200
H1165       H  0.64708619  0.44102362  0.72276379     0.16500
F1166       F  0.61689397  0.45737888  0.83495116    -0.22900
H1167       H  0.61717977  0.49174963  0.80487107     0.18300
C1168       C  0.61053256  0.51626216  0.74058122     0.26300
C1169       C  0.60861958  0.53540391  0.72755744    -0.11400
C1170       C  0.62380411  0.54459044  0.70748126    -0.25400
C1171       C  0.64100198  0.53405760  0.70021482     0.37200
C1172       C  0.64313245  0.51506314  0.71417983    -0.27100
F1173       F  0.59514000  0.50786094  0.75859567    -0.19200
H1174       H  0.59514956  0.54310844  0.73336392     0.16500
F1175       F  0.65611732  0.54234694  0.68111787    -0.22900
H1176       H  0.65690133  0.50769343  0.70971590     0.18300
C1177       C  0.52229358  0.63633905  0.20292655    -0.26900
C1178       C  0.51219429  0.62104595  0.18528325     0.06700
C1179       C  0.52262514  0.60591221  0.16769286     0.26300
C1180       C  0.54299705  0.60610137  0.16796704    -0.11400
C1181       C  0.55325365  0.62129741  0.18609464    -0.25400
C1182       C  0.54261692  0.63649481  0.20360929     0.37100
C1183       C  0.49074747  0.62106110  0.18534712     0.06700
F1184       F  0.51307853  0.59113739  0.14980527    -0.19200
H1185       H  0.55073906  0.59425322  0.15419048     0.16500
F1186       F  0.55174838  0.65161854  0.22122011    -0.22900
H1187       H  0.51436333  0.64811761  0.21656210     0.18300
C1188       C  0.48037956  0.60677688  0.20560631     0.26300
C1189       C  0.46003408  0.60714454  0.20606541    -0.11400
C1190       C  0.44969739  0.62167070  0.18606156    -0.25400
C1191       C  0.46022733  0.63604481  0.16592019     0.37200
C1192       C  0.48058543  0.63574192  0.16584149    -0.27100
F1193       F  0.48996475  0.59274099  0.22557531    -0.19200
H1194       H  0.45236408  0.59597561  0.22203370     0.16500
F1195       F  0.45094415  0.65060939  0.14692424    -0.22900
H1196       H  0.48847989  0.64695247  0.15039821     0.18300
C1197       C  0.62863343  0.59992476  0.97945392    -0.26900
C1198       C  0.62749918  0.61739123  0.95847253     0.06700
C1199       C  0.62516380  0.63505331  0.97830022     0.26300
C1200       C  0.62435597  0.63521347  0.01831260    -0.11400
C1201       C  0.62563465  0.61781313  0.03941793    -0.25400
C1202       C  0.62775563  0.60008165  0.01965335     0.37100
C1203       C  0.62805689  0.61708309  0.91595784     0.06700
F1204       F  0.62317880  0.65211580  0.95897028    -0.19200
H1205       H  0.62258230  0.64906762  0.03291745     0.16500
F1206       F  0.62973914  0.58306751  0.03912710    -0.22900
H1207       H  0.63048252  0.58615293  0.96461720     0.18300
C1208       C  0.64093724  0.62912212  0.89533568     0.26300
C1209       C  0.64053561  0.62932370  0.85514855    -0.11400
C1210       C  0.62732043  0.61754338  0.83479257    -0.25400
C1211       C  0.61479531  0.60510050  0.85563557     0.37200
C1212       C  0.61523675  0.60492990  0.89573164    -0.27100
F1213       F  0.65404600  0.64053167  0.91403886    -0.19200
H1214       H  0.65045006  0.63890553  0.83996348     0.16500
F1215       F  0.60211563  0.59300219  0.83745810    -0.22900
H1216       H  0.60524195  0.59550216  0.91111986     0.18300
C1217       C  0.64487795  0.62198617  0.39786694    -0.26900
C1218       C  0.62685553  0.62552954  0.41569787     0.06700
C1219       C  0.61082723  0.63094513  0.39293039     0.26300
C1220       C  0.61272122  0.63230694  0.35318017    -0.11400
C1221       C  0.63053329  0.62809894  0.33501469    -0.25400
C1222       C  0.64674673  0.62316466  0.35787771     0.37100
C1223       C  0.62468588  0.62336271  0.45784760     0.06700
F1224       F  0.59306177  0.63409621  0.40888335    -0.19200
H1225       H  0.59991120  0.63606914  0.33649174     0.16500
F1226       F  0.66433141  0.61936139  0.34175202    -0.22900
H1227       H  0.65753937  0.61820251  0.41497631     0.18300
C1228       C  0.63152372  0.60664303  0.47692087     0.26300
C1229       C  0.62932891  0.60481202  0.51667822    -0.11400
C1230       C  0.62022523  0.61954702  0.53820337    -0.25400
C1231       C  0.61294095  0.63606294  0.51880975     0.37200
C1232       C  0.61533893  0.63794537  0.47919197    -0.27100
F1233       F  0.64008599  0.59194625  0.45707270    -0.19200
H1234       H  0.63503113  0.59190296  0.53067919     0.16500
F1235       F  0.60375211  0.65061189  0.53799956    -0.22900
H1236       H  0.61005926  0.65103076  0.46516915     0.18300
C1237       C  0.61524803  0.51805102  0.22160896    -0.26900
C1238       C  0.62952063  0.51141320  0.24747224     0.06700
C1239       C  0.64438470  0.52431732  0.25889807     0.26300
C1240       C  0.64483770  0.54339752  0.24491411    -0.11400
C1241       C  0.63054885  0.55016279  0.21910811    -0.25400
C1242       C  0.61570171  0.53717814  0.20749144     0.37100
C1243       C  0.62933555  0.49091464  0.26144936     0.06700
F1244       F  0.65829478  0.51861755  0.28430684    -0.19200
H1245       H  0.65640087  0.55295952  0.25469288     0.16500
F1246       F  0.60147919  0.54292215  0.18283242    -0.22900
H1247       H  0.60381965  0.50830734  0.21190650     0.18300
C1248       C  0.61235854  0.48229009  0.27660829     0.26300
C1249       C  0.61265439  0.46291934  0.28950164    -0.11400
C1250       C  0.62976758  0.45172495  0.28706813    -0.25400
C1251       C  0.64671106  0.46045771  0.27199638     0.37200
C1252       C  0.64642398  0.47975957  0.25942718    -0.27100
F1253       F  0.59555314  0.49261562  0.27926308    -0.19200
H1254       H  0.59932951  0.45651918  0.30053053     0.16500
F1255       F  0.66364668  0.45034831  0.26923796    -0.22900
H1256       H  0.65962116  0.48593928  0.24738995     0.18300
C1257       C  0.97597484  0.62025930  0.59262612    -0.26900
C1258       C  0.98603459  0.62758529  0.56064658     0.06700
C1259       C  0.97535485  0.63532947  0.52977617     0.26300
C1260       C  0.95496290  0.63567799  0.53098511    -0.11400
C1261       C  0.94475355  0.62804035  0.56270013    -0.25400
C1262       C  0.95555973  0.62033161  0.59367405     0.37100
C1263       C  0.00762573  0.62677092  0.55948166     0.06700
F1264       F  0.98466729  0.64276255  0.49865719    -0.19200
H1265       H  0.94713187  0.64171009  0.50666011     0.16500
F1266       F  0.94647960  0.61297989  0.62510953    -0.22900
H1267       H  0.98399945  0.61417824  0.61667452     0.18300
C1268       C  0.01887771  0.63622500  0.58761646     0.26300
C1269       C  0.03921355  0.63469481  0.58726914    -0.11400
C1270       C  0.04879313  0.62373057  0.55883334    -0.25400
C1271       C  0.03742567  0.61457567  0.53012164     0.37200
C1272       C  0.01707798  0.61613137  0.53059215    -0.27100
F1273       F  0.01018709  0.64724368  0.61504881    -0.19200
H1274       H  0.04747011  0.64215505  0.60940736     0.16500
F1275       F  0.04586170  0.60416314  0.50145611    -0.22900
H1276       H  0.00862089  0.60878105  0.50857289     0.18300
C1277       C  0.76609397  0.64168142  0.62070772    -0.26900
C1278       C  0.75505541  0.62506477  0.61185328     0.06700
C1279       C  0.76333304  0.61065098  0.58816041     0.26300
C1280       C  0.78242625  0.61269045  0.57451318    -0.11400
C1281       C  0.79370601  0.62908153  0.58422875    -0.25400
C1282       C  0.78516299  0.64374324  0.60715304     0.37100
C1283       C  0.73483671  0.62309880  0.62675079     0.06700
F1284       F  0.75322522  0.59423527  0.57937074    -0.19200
H1285       H  0.78860070  0.60107547  0.55730647     0.16500
F1286       F  0.79521225  0.66008091  0.61677414    -0.22900
H1287       H  0.75988122  0.65318508  0.63817072     0.18300
C1288       C  0.73056733  0.62591266  0.66598849     0.26300
C1289       C  0.71130615  0.62463589  0.67924228    -0.11400
C1290       C  0.69603463  0.62022242  0.65376899    -0.25400
C1291       C  0.70037348  0.61734608  0.61456580     0.37200
C1292       C  0.71953017  0.61883662  0.60134388    -0.27100
F1293       F  0.74506715  0.62947762  0.69163283    -0.19200
H1294       H  0.70836263  0.62680310  0.70951831     0.16500
F1295       F  0.68600049  0.61373891  0.58863648    -0.22900
H1296       H  0.72237438  0.61699069  0.57093309     0.18300
C1297       C  0.98051206  0.61594887  0.08622374    -0.26900
C1298       C  0.99028314  0.62396041  0.05465439     0.06700
C1299       C  0.97952729  0.63138125  0.02365509     0.26300
C1300       C  0.95917376  0.63090836  0.02452340    -0.11400
C1301       C  0.94923402  0.62280630  0.05610005    -0.25400
C1302       C  0.96017125  0.61523166  0.08698518     0.37100
C1303       C  0.01172937  0.62433427  0.05421787     0.06700
F1304       F  0.98872661  0.63935408  0.99292269    -0.19200
H1305       H  0.95117824  0.63685622  0.00030658     0.16500
F1306       F  0.95128410  0.60746010  0.11824511    -0.22900
H1307       H  0.98872079  0.61013158  0.11029850     0.18300
C1308       C  0.02206052  0.63640631  0.07959159     0.26300
C1309       C  0.04242513  0.63616713  0.07989975    -0.11400
C1310       C  0.05282634  0.62377208  0.05507118    -0.25400
C1311       C  0.04228666  0.61168064  0.02959275     0.37200
C1312       C  0.02192913  0.61210457  0.02914680    -0.27100
F1313       F  0.01241372  0.64853422  0.10379043    -0.19200
H1314       H  0.05004047  0.64571093  0.09967587     0.16500
F1315       F  0.05153617  0.59926777  0.00536543    -0.22900
H1316       H  0.01405846  0.60261987  0.00961007     0.18300
C1317       C  0.87602637  0.64008188  0.85089022    -0.26900
C1318       C  0.86533377  0.62541879  0.83220183     0.06700
C1319       C  0.85542835  0.61146386  0.85438927     0.26300
C1320       C  0.85598579  0.61248274  0.89452713    -0.11400
C1321       C  0.86667765  0.62718746  0.91321758    -0.25400
C1322       C  0.87676339  0.64100223  0.89091087     0.37100
C1323       C  0.86465760  0.62504514  0.78964967     0.06700
F1324       F  0.84499963  0.59703751  0.83733661    -0.19200
H1325       H  0.84831841  0.60150250  0.91104564     0.16500
F1326       F  0.88721406  0.65551635  0.90765340    -0.22900
H1327       H  0.88402166  0.65081982  0.83432906     0.18300
C1328       C  0.86026103  0.64210342  0.76910880     0.26300
C1329       C  0.86135535  0.64232364  0.72913344    -0.11400
C1330       C  0.86675629  0.62555086  0.70859983    -0.25400
C1331       C  0.87021206  0.60815916  0.72905272     0.37200
C1332       C  0.86926574  0.60800083  0.76926122    -0.27100
F1333       F  0.85486979  0.65860958  0.78775713    -0.19200
H1334       H  0.85819938  0.65583683  0.71425560     0.16500
F1335       F  0.87437157  0.59131722  0.71035120    -0.22900
H1336       H  0.87258760  0.59463959  0.78454542     0.18300
C1337       C  0.87617944  0.60519248  0.27066944    -0.26900
C1338       C  0.87311726  0.62293557  0.28979889     0.06700
C1339       C  0.87234736  0.64025746  0.26854339     0.26300
C1340       C  0.87437192  0.63982169  0.22877812    -0.11400
C1341       C  0.87728116  0.62213580  0.20921998    -0.25400
C1342       C  0.87836362  0.60473864  0.23061014     0.37100
C1343       C  0.87140734  0.62369375  0.33202412     0.06700
F1344       F  0.86918990  0.65759375  0.28625141    -0.19200
H1345       H  0.87345994  0.65346368  0.21316877     0.16500
F1346       F  0.88090694  0.58731914  0.21287293    -0.22900
H1347       H  0.87696408  0.59171003  0.28685393     0.18300
C1348       C  0.85600823  0.61444824  0.35133481     0.26300
C1349       C  0.85431665  0.61614319  0.39132246    -0.11400
C1350       C  0.86799753  0.62701438  0.41259900    -0.25400
C1351       C  0.88337495  0.63629723  0.39278449     0.37200
C1352       C  0.88494945  0.63461387  0.35303179    -0.27100
F1353       F  0.84241065  0.60419871  0.33141625    -0.19200
H1354       H  0.84232876  0.60884378  0.40564891     0.16500
F1355       F  0.89703915  0.64698922  0.41160567    -0.22900
H1356       H  0.89688995  0.64188614  0.33844012     0.18300
C1357       C  0.77378713  0.64169723  0.12942406    -0.26900
C1358       C  0.76127411  0.62646882  0.11890641     0.06700
C1359       C  0.76827604  0.61158265  0.09485594     0.26300
C1360       C  0.78755441  0.61201629  0.08165885    -0.11400
C1361       C  0.80022864  0.62716086  0.09258138    -0.25400
C1362       C  0.79306915  0.64203992  0.11678124     0.37100
C1363       C  0.74088267  0.62661076  0.13271084     0.06700
F1364       F  0.75639655  0.59681339  0.08363989    -0.19200
H1365       H  0.79263366  0.60033342  0.06331803     0.16500
F1366       F  0.80462385  0.65699127  0.12842360    -0.22900
H1367       H  0.76863839  0.65328068  0.14796937     0.18300
C1368       C  0.73325525  0.61099326  0.15405816     0.26300
C1369       C  0.71404946  0.61163762  0.16751442    -0.11400
C1370       C  0.70208005  0.62775562  0.15959588    -0.25400
C1371       C  0.70989407  0.64349832  0.13859188     0.37200
C1372       C  0.72911485  0.64290009  0.12554942    -0.27100
F1373       F  0.74446913  0.59527232  0.16238846    -0.19200
H1374       H  0.70839881  0.59929642  0.18343861     0.16500
F1375       F  0.69902827  0.65953565  0.13071276    -0.22900
H1376       H  0.73481043  0.65515156  0.10937954     0.18300
C1377       C  0.02284369  0.37384723  0.97619163    -0.26900
C1378       C  0.01228909  0.36831313  0.94335609     0.06700
C1379       C  0.02251739  0.36350247  0.90963830     0.26300
C1380       C  0.04288626  0.36450422  0.90888276    -0.11400
C1381       C  0.05339804  0.37061481  0.94142415    -0.25400
C1382       C  0.04314646  0.37503988  0.97535602     0.37100
C1383       C  0.99068772  0.36906073  0.94395645     0.06700
F1384       F  0.01283015  0.35875802  0.87690194    -0.19200
H1385       H  0.05042739  0.36102565  0.88240205     0.16500
F1386       F  0.05271354  0.38029005  0.00794276    -0.22900
H1387       H  0.01528229  0.37743042  0.00260954     0.18300
C1388       C  0.97919049  0.35360560  0.92996017     0.26300
C1389       C  0.95885272  0.35519196  0.92948297    -0.11400
C1390       C  0.94967037  0.37200458  0.94366409    -0.25400
C1391       C  0.96117800  0.38721154  0.95854068     0.37200
C1392       C  0.98143889  0.38574048  0.95846730    -0.27100
F1393       F  0.98755478  0.33684482  0.91753634    -0.19200
H1394       H  0.95026737  0.34317707  0.91844940     0.16500
F1395       F  0.95291422  0.40383147  0.97197249    -0.22900
H1396       H  0.98996617  0.39787021  0.96914610     0.18300
C1397       C  0.77407755  0.39663336  0.87707028    -0.26900
C1398       C  0.76205992  0.38095563  0.88721715     0.06700
C1399       C  0.76944679  0.36641439  0.91176168     0.26300
C1400       C  0.78855411  0.36757349  0.92561138    -0.11400
C1401       C  0.80075641  0.38310401  0.91494825    -0.25400
C1402       C  0.79319216  0.39778334  0.89071283     0.37100
C1403       C  0.74193183  0.37981089  0.87184961     0.06700
F1404       F  0.75847380  0.35064962  0.92107676    -0.19200
H1405       H  0.79397882  0.35593447  0.94371511     0.16500
F1406       F  0.80427602  0.41316275  0.87957431    -0.22900
H1407       H  0.76862910  0.40804804  0.85842708     0.18300
C1408       C  0.72613875  0.37665702  0.89664932     0.26300
C1409       C  0.70731588  0.37490288  0.88192830    -0.11400
C1410       C  0.70371240  0.37659330  0.84224701    -0.25400
C1411       C  0.71941024  0.38045596  0.81745121     0.37200
C1412       C  0.73838120  0.38196118  0.83221591    -0.27100
F1413       F  0.72882803  0.37569897  0.93527197    -0.19200
H1414       H  0.69545415  0.37246097  0.90181773     0.16500
F1415       F  0.71654587  0.38222115  0.77900760    -0.22900
H1416       H  0.75035904  0.38449463  0.81263998     0.18300
C1417       C  0.89440353  0.48075035  0.00092141    -0.26900
C1418       C  0.87874825  0.49288572  0.99092137     0.06700
C1419       C  0.86412433  0.48556445  0.96636416     0.26300
C1420       C  0.86502262  0.46643700  0.95281388    -0.11400
C1421       C  0.88031229  0.45406173  0.96384347    -0.25400
C1422       C  0.89518511  0.46151993  0.98780543     0.37100
C1423       C  0.87774714  0.51316196  0.00572190     0.06700
F1424       F  0.84846990  0.49661608  0.95671410    -0.19200
H1425       H  0.85327800  0.46109730  0.93482431     0.16500
F1426       F  0.91040964  0.45023776  0.99903284    -0.22900
H1427       H  0.90607937  0.48615549  0.01901333     0.18300
C1428       C  0.88120591  0.51754041  0.04477874     0.26300
C1429       C  0.87979353  0.53677726  0.05799499    -0.11400
C1430       C  0.87449245  0.55179896  0.03272869    -0.25400
C1431       C  0.87118719  0.54741312  0.99376021     0.37200
C1432       C  0.87304573  0.52837324  0.98045315    -0.27100
F1433       F  0.88539807  0.50321287  0.07036245    -0.19200
H1434       H  0.88245665  0.53988531  0.08807425     0.16500
F1435       F  0.86675917  0.56166319  0.96813174    -0.22900
H1436       H  0.87090576  0.52554023  0.95011786     0.18300
C1437       C  0.97863911  0.35827223  0.41997175    -0.26900
C1438       C  0.99037882  0.37482648  0.42422755     0.06700
C1439       C  0.98172544  0.39300538  0.43141110     0.26300
C1440       C  0.96152169  0.39444924  0.43519763    -0.11400
C1441       C  0.94976383  0.37786626  0.43101169    -0.25400
C1442       C  0.95844823  0.35975335  0.42308179     0.37100
C1443       C  0.01170230  0.37288503  0.42362875     0.06700
F1444       F  0.99287557  0.40919134  0.43595319    -0.19200
H1445       H  0.95503694  0.40852380  0.44111702     0.16500
F1446       F  0.94746603  0.34337177  0.41978347    -0.22900
H1447       H  0.98517367  0.34416551  0.41461924     0.18300
C1448       C  0.02116594  0.36154632  0.45149418     0.26300
C1449       C  0.04147408  0.36119215  0.45321456    -0.11400
C1450       C  0.05265811  0.37203947  0.42697586    -0.25400
C1451       C  0.04303260  0.38250727  0.39764798     0.37200
C1452       C  0.02270690  0.38304463  0.39635441    -0.27100
F1453       F  0.01073727  0.35154763  0.47812704    -0.19200
H1454       H  0.04840485  0.35282605  0.47578610     0.16500
F1455       F  0.05315479  0.39242741  0.37046473    -0.22900
H1456       H  0.01551513  0.39156422  0.37430747     0.18300
C1457       C  0.86293792  0.39440974  0.72949774    -0.26900
C1458       C  0.87395402  0.38034645  0.70985857     0.06700
C1459       C  0.88638291  0.36808415  0.73102055     0.26300
C1460       C  0.88756060  0.36975423  0.77089506    -0.11400
C1461       C  0.87638306  0.38361729  0.79080962    -0.25400
C1462       C  0.86410952  0.39610857  0.76956004     0.37100
C1463       C  0.87319939  0.37904514  0.66729904     0.06700
F1464       F  0.89707858  0.35411471  0.71325031    -0.19200
H1465       H  0.89712603  0.35988583  0.78627816     0.16500
F1466       F  0.85297570  0.40971791  0.78734393    -0.22900
H1467       H  0.85352551  0.40426027  0.71369914     0.18300
C1468       C  0.85537676  0.37828689  0.64718346     0.26300
C1469       C  0.85518687  0.37762365  0.60690603    -0.11400
C1470       C  0.87272211  0.37775889  0.58607340    -0.25400
C1471       C  0.89050817  0.37793185  0.60646254     0.37200
C1472       C  0.89065376  0.37872655  0.64645488    -0.27100
F1473       F  0.83818988  0.37802507  0.66642763    -0.19200
H1474       H  0.84129569  0.37740953  0.59200275     0.16500
F1475       F  0.90788229  0.37738318  0.58787725    -0.22900
H1476       H  0.90456641  0.37942550  0.66122292     0.18300
C1477       C  0.88324417  0.37057921  0.23006128    -0.26900
C1478       C  0.87357553  0.38550888  0.21041010     0.06700
C1479       C  0.86654022  0.40163109  0.23101480     0.26300
C1480       C  0.86867215  0.40243290  0.27095577    -0.11400
C1481       C  0.87791409  0.38722078  0.29096860    -0.25400
C1482       C  0.88557552  0.37141601  0.26986059     0.37100
C1483       C  0.87140201  0.38432120  0.16828250     0.06700
F1484       F  0.85707710  0.41627819  0.21261517    -0.19200
H1485       H  0.86260470  0.41476264  0.28631648     0.16500
F1486       F  0.89517808  0.35662241  0.28752775    -0.22900
H1487       H  0.88909962  0.35823555  0.21440413     0.18300
C1488       C  0.87988399  0.39854610  0.14478977     0.26300
C1489       C  0.87895509  0.39673722  0.10497384    -0.11400
C1490       C  0.86953984  0.38074903  0.08765845    -0.25400
C1491       C  0.86053521  0.36674824  0.11120993     0.37200
C1492       C  0.86166110  0.36847638  0.15129437    -0.27100
F1493       F  0.88979805  0.41375348  0.16036964    -0.19200
H1494       H  0.88592729  0.40783181  0.08755300     0.16500
F1495       F  0.85139830  0.35106981  0.09566669    -0.22900
H1496       H  0.85508183  0.35734254  0.16919793     0.18300
C1497       C  0.77494454  0.39617797  0.36496422    -0.26900
C1498       C  0.76343993  0.37996710  0.37462124     0.06700
C1499       C  0.77173322  0.36530264  0.39779605     0.26300
C1500       C  0.79073468  0.36727498  0.41213856    -0.11400
C1501       C  0.80212715  0.38371530  0.40327579    -0.25400
C1502       C  0.79404591  0.39806497  0.37891886     0.37100
C1503       C  0.74269074  0.37882726  0.36160110     0.06700
F1504       F  0.76162506  0.34881708  0.40598193    -0.19200
H1505       H  0.79663636  0.35569975  0.42980321     0.16500
F1506       F  0.80444723  0.41408475  0.36880319    -0.22900
H1507       H  0.76898046  0.40765447  0.34712146     0.18300
C1508       C  0.72774921  0.37451440  0.38790778     0.26300
C1509       C  0.70829835  0.37375860  0.37589824    -0.11400
C1510       C  0.70306657  0.37765977  0.33753704    -0.25400
C1511       C  0.71794957  0.38225334  0.31118611     0.37200
C1512       C  0.73754082  0.38276688  0.32315563    -0.27100
F1513       F  0.73182092  0.37176890  0.42571105    -0.19200
H1514       H  0.69721635  0.37051978  0.39704757     0.16500
F1515       F  0.71365987  0.38590194  0.27378498    -0.22900
H1516       H  0.74872771  0.38614968  0.30230760     0.18300
C1517       C  0.88291415  0.48028038  0.52508749    -0.26900
C1518       C  0.87315720  0.49455300  0.50367563     0.06700
C1519       C  0.86544848  0.48958330  0.46747831     0.26300
C1520       C  0.86708901  0.47052650  0.45351776    -0.11400
C1521       C  0.87659349  0.45607854  0.47514672    -0.25400
C1522       C  0.88466481  0.46126095  0.51116844     0.37100
C1523       C  0.87162178  0.51470696  0.51873303     0.06700
F1524       F  0.85673919  0.50328172  0.44520147    -0.19200
H1525       H  0.86092862  0.46709624  0.42561231     0.16500
F1526       F  0.89395877  0.44795013  0.53347781    -0.22900
H1527       H  0.88903451  0.48384993  0.55298028     0.18300
C1528       C  0.85347307  0.52409195  0.52150527     0.26300
C1529       C  0.85244763  0.54358103  0.53310544    -0.11400
C1530       C  0.86943168  0.55394201  0.54288763    -0.25400
C1531       C  0.88749415  0.54424461  0.54181449     0.37200
C1532       C  0.88852261  0.52481964  0.52978971    -0.27100
F1533       F  0.83674524  0.51438431  0.51316702    -0.19200
H1534       H  0.83834902  0.55064515  0.53418844     0.16500
F1535       F  0.90428227  0.55380894  0.55029142    -0.22900
H1536       H  0.90263284  0.51782622  0.52793701     0.18300
C1537       C  0.14057032  0.27061853  0.97442943    -0.26900
C1538       C  0.13132876  0.26023118  0.94488442     0.06700
C1539       C  0.12244593  0.27033965  0.91462432     0.26300
C1540       C  0.12273442  0.29063565  0.91398781    -0.11400
C1541       C  0.13208826  0.30125852  0.94329892    -0.25400
C1542       C  0.14112312  0.29100776  0.97361673     0.37100
C1543       C  0.13093558  0.23881435  0.94530193     0.06700
F1544       F  0.11333772  0.26052413  0.88585813    -0.19200
H1545       H  0.11569113  0.29804463  0.89022201     0.16500
F1546       F  0.15023897  0.30059677  0.00265570    -0.22900
H1547       H  0.14748220  0.26289066  0.99796611     0.18300
C1548       C  0.14245685  0.22820605  0.91951859     0.26300
C1549       C  0.14120634  0.20791459  0.91840995    -0.11400
C1550       C  0.12832524  0.19785550  0.94283361    -0.25400
C1551       C  0.11676785  0.20866208  0.96872303     0.37200
C1552       C  0.11819630  0.22896790  0.96995881    -0.27100
F1553       F  0.15489964  0.23752669  0.89542452    -0.19200
H1554       H  0.15031851  0.20009401  0.89823981     0.16500
F1555       F  0.10397191  0.19973077  0.99266029    -0.22900
H1556       H  0.10908162  0.23707867  0.98969214     0.18300
C1557       C  0.12089495  0.26739507  0.48099075    -0.26900
C1558       C  0.12491834  0.25631493  0.44805914     0.06700
C1559       C  0.12906367  0.26591200  0.41334056     0.26300
C1560       C  0.12921149  0.28621136  0.41170313    -0.11400
C1561       C  0.12498122  0.29738618  0.44444666    -0.25400
C1562       C  0.12078825  0.28776828  0.47927138     0.37100
C1563       C  0.12426053  0.23478367  0.44942514     0.06700
F1564       F  0.13320122  0.25562827  0.38104191    -0.19200
H1565       H  0.13243919  0.29320935  0.38451787     0.16500
F1566       F  0.11687439  0.29799188  0.51174588    -0.22900
H1567       H  0.11753453  0.26023113  0.50795485     0.18300
C1568       C  0.13560923  0.22419238  0.47580319     0.26300
C1569       C  0.13549636  0.20379456  0.47503292    -0.11400
C1570       C  0.12400787  0.19362962  0.44809480    -0.25400
C1571       C  0.11233276  0.20439863  0.42232234     0.37200
C1572       C  0.11251097  0.22469586  0.42314201    -0.27100
F1573       F  0.14730105  0.23355437  0.50134644    -0.19200
H1574       H  0.14462529  0.19596786  0.49524920     0.16500
F1575       F  0.10089690  0.19543727  0.39579573    -0.22900
H1576       H  0.10347858  0.23262522  0.40290072     0.18300
C1577       C  0.11633470  0.10538881  0.65080300    -0.26900
C1578       C  0.13106723  0.11522536  0.67092984     0.06700
C1579       C  0.14560290  0.12509035  0.64998122     0.26300
C1580       C  0.14480278  0.12576894  0.60982209    -0.11400
C1581       C  0.12971323  0.11640252  0.58968320    -0.25400
C1582       C  0.11564649  0.10582221  0.61074619     0.37100
C1583       C  0.13065235  0.11557429  0.71359973     0.06700
F1584       F  0.16073607  0.13387559  0.66823786    -0.19200
H1585       H  0.15600042  0.13373649  0.59449885     0.16500
F1586       F  0.10108315  0.09591091  0.59289321    -0.22900
H1587       H  0.10500416  0.09763941  0.66620829     0.18300
C1588       C  0.13285657  0.13320043  0.73368192     0.26300
C1589       C  0.13176849  0.13353772  0.77366516    -0.11400
C1590       C  0.12797552  0.11645316  0.79469078    -0.25400
C1591       C  0.12543395  0.09882074  0.77464170     0.37200
C1592       C  0.12687822  0.09842566  0.73449303    -0.27100
F1593       F  0.13522777  0.15030413  0.71468120    -0.19200
H1594       H  0.13354335  0.14738900  0.78815159     0.16500
F1595       F  0.12182037  0.08194726  0.79367360    -0.22900
H1596       H  0.12505014  0.08467492  0.71966321     0.18300
C1597       C  0.12641197  0.10197752  0.23136048    -0.26900
C1598       C  0.11980444  0.11890288  0.21285489     0.06700
C1599       C  0.11142974  0.13385031  0.23485003     0.26300
C1600       C  0.11043263  0.13217179  0.27473314    -0.11400
C1601       C  0.11783271  0.11562649  0.29364883    -0.25400
C1602       C  0.12543069  0.10026134  0.27136415     0.37100
C1603       C  0.12196512  0.12111340  0.17078346     0.06700
F1604       F  0.10507311  0.15050938  0.21796414    -0.19200
H1605       H  0.10441968  0.14424982  0.29091431     0.16500
F1606       F  0.13232791  0.08378467  0.28808025    -0.22900
H1607       H  0.13255117  0.09010740  0.21473360     0.18300
C1608       C  0.14012105  0.11830330  0.15295882     0.26300
C1609       C  0.14197105  0.12054331  0.11321904    -0.11400
C1610       C  0.12579892  0.12564383  0.09050653    -0.25400
C1611       C  0.10765009  0.12861663  0.10858382     0.37200
C1612       C  0.10584442  0.12634373  0.14826171    -0.27100
F1613       F  0.15612591  0.11368821  0.17405183    -0.19200
H1614       H  0.15612203  0.11815303  0.10016704     0.16500
F1615       F  0.09145177  0.13310089  0.08795442    -0.22900
H1616       H  0.09166219  0.12837649  0.16144440     0.18300
C1617       C  0.38558431  0.27069193  0.82259600    -0.26900
C1618       C  0.36878561  0.26104973  0.80967543     0.06700
C1619       C  0.35245694  0.27210263  0.79864913     0.26300
C1620       C  0.35319983  0.29247696  0.79996835    -0.11400
C1621       C  0.37011088  0.30214857  0.81271379    -0.25400
C1622       C  0.38631810  0.29096758  0.82418340     0.37100
C1623       C  0.36860223  0.23948472  0.80847383     0.06700
F1624       F  0.33598701  0.26323960  0.78584450    -0.19200
H1625       H  0.34047423  0.30070454  0.79107936     0.16500
F1626       F  0.40307071  0.29955127  0.83627957    -0.22900
H1627       H  0.39823446  0.26242445  0.83175237     0.18300
C1628       C  0.38375928  0.22926790  0.79029643     0.26300
C1629       C  0.38466627  0.20898013  0.79255444    -0.11400
C1630       C  0.37060057  0.19844249  0.81322813    -0.25400
C1631       C  0.35502660  0.20866949  0.83034625     0.37200
C1632       C  0.35407765  0.22899116  0.82783167    -0.27100
F1633       F  0.39780184  0.23895510  0.77057095    -0.19200
H1634       H  0.39670466  0.20153993  0.77877353     0.16500
F1635       F  0.34074525  0.19911410  0.84964403    -0.22900
H1636       H  0.34229235  0.23660779  0.84212044     0.18300
C1637       C  0.22663502  0.11850162  0.86934223    -0.26900
C1638       C  0.24145861  0.11814200  0.89706452     0.06700
C1639       C  0.23640353  0.11841683  0.93629536     0.26300
C1640       C  0.21676501  0.11921046  0.94735970    -0.11400
C1641       C  0.20199023  0.12018902  0.91944633    -0.25400
C1642       C  0.20712804  0.11959480  0.88029297     0.37100
C1643       C  0.26207471  0.11863135  0.88452081     0.06700
F1644       F  0.25044813  0.11791050  0.96380770    -0.19200
H1645       H  0.21313067  0.11957366  0.97762639     0.16500
F1646       F  0.19323564  0.11988394  0.85245889    -0.22900
H1647       H  0.23020429  0.11843442  0.83903272     0.18300
C1648       C  0.26926785  0.10513577  0.85761933     0.26300
C1649       C  0.28849679  0.10650490  0.84452099    -0.11400
C1650       C  0.30087307  0.12139095  0.85783067    -0.25400
C1651       C  0.29349979  0.13500917  0.88449646     0.37200
C1652       C  0.27435314  0.13352788  0.89769638    -0.27100
F1653       F  0.25777116  0.09048506  0.84439753    -0.19200
H1654       H  0.29374381  0.09577938  0.82416669     0.16500
F1655       F  0.30460439  0.15003319  0.89739872    -0.22900
H1656       H  0.26893666  0.14434901  0.91768191     0.18300
C1657       C  0.37152709  0.22639223  0.34663291    -0.26900
C1658       C  0.36690480  0.23600433  0.31221006     0.06700
C1659       C  0.36175156  0.22491195  0.27975813     0.26300
C1660       C  0.36173554  0.20455700  0.28169349    -0.11400
C1661       C  0.36690979  0.19494994  0.31590117    -0.25400
C1662       C  0.37143140  0.20610675  0.34865214     0.37100
C1663       C  0.36781660  0.25754634  0.31060608     0.06700
F1664       F  0.35650472  0.23374847  0.24641638    -0.19200
H1665       H  0.35794245  0.19628344  0.25617824     0.16500
F1666       F  0.37548574  0.19745023  0.38281972    -0.22900
H1667       H  0.37550201  0.23465697  0.37205147     0.18300
C1668       C  0.35859987  0.26880609  0.33891159     0.26300
C1669       C  0.36060789  0.28900349  0.33894660    -0.11400
C1670       C  0.37178231  0.29854745  0.31074787    -0.25400
C1671       C  0.38073422  0.28726929  0.28188651     0.37200
C1672       C  0.37874039  0.26695519  0.28196333    -0.27100
F1673       F  0.34745862  0.26028347  0.36640334    -0.19200
H1674       H  0.35331731  0.29718515  0.36134835     0.16500
F1675       F  0.39139932  0.29575589  0.25365848    -0.22900
H1676       H  0.38609057  0.25850021  0.26001729     0.18300
C1677       C  0.38175228  0.12859246  0.61157206    -0.26900
C1678       C  0.36435500  0.12392193  0.59258534     0.06700
C1679       C  0.34757685  0.11993408  0.61440026     0.26300
C1680       C  0.34841203  0.12050852  0.65466060    -0.11400
C1681       C  0.36594201  0.12512241  0.67370008    -0.25400
C1682       C  0.38262139  0.12924007  0.65152324     0.37100
C1683       C  0.36430967  0.12288284  0.55009175     0.06700
F1684       F  0.33039300  0.11579254  0.59679763    -0.19200
H1685       H  0.33530982  0.11736344  0.67096030     0.16500
F1686       F  0.40002836  0.13333348  0.66828586    -0.22900
H1687       H  0.39492664  0.13141697  0.59526681     0.18300
C1688       C  0.37164496  0.13846691  0.52831580     0.26300
C1689       C  0.37349967  0.13676454  0.48855072    -0.11400
C1690       C  0.36795471  0.11956452  0.46943964    -0.25400
C1691       C  0.36029856  0.10403747  0.49127893     0.37200
C1692       C  0.35852242  0.10575330  0.53123303    -0.27100
F1693       F  0.37690392  0.15542529  0.54556305    -0.19200
H1694       H  0.37914253  0.14912521  0.47263317     0.16500
F1695       F  0.35481756  0.08710170  0.47426919    -0.22900
H1696       H  0.35308104  0.09346497  0.54765049     0.18300
C1697       C  0.36239299  0.12921965  0.10830946    -0.26900
C1698       C  0.37836634  0.11967112  0.09162271     0.06700
C1699       C  0.39165453  0.10984190  0.11535541     0.26300
C1700       C  0.38906827  0.10977637  0.15516145    -0.11400
C1701       C  0.37312588  0.11943003  0.17217195    -0.25400
C1702       C  0.35965602  0.12900712  0.14814955     0.37100
C1703       C  0.38100426  0.12010863  0.04945620     0.06700
F1704       F  0.40741724  0.10073897  0.10013457    -0.19200
H1705       H  0.39973190  0.10226449  0.17267624     0.16500
F1706       F  0.34388355  0.13823387  0.16295907    -0.22900
H1707       H  0.35192416  0.13672917  0.09034141     0.18300
C1708       C  0.38199531  0.10275852  0.02809198     0.26300
C1709       C  0.38320999  0.10340628  0.98800050    -0.11400
C1710       C  0.38316573  0.12132884  0.96854539    -0.25400
C1711       C  0.38287641  0.13870855  0.99012691     0.37200
C1712       C  0.38177699  0.13803232  0.03019666    -0.27100
F1713       F  0.38067882  0.08520087  0.04582603    -0.19200
H1714       H  0.38320698  0.08984382  0.97206780     0.16500
F1715       F  0.38343149  0.15635585  0.97254243    -0.22900
H1716       H  0.38126230  0.15154916  0.04628481     0.18300
C1717       C  0.26289849  0.14006918  0.33268824    -0.26900
C1718       C  0.25545366  0.12953388  0.36403511     0.06700
C1719       C  0.26772298  0.11648112  0.38342640     0.26300
C1720       C  0.28697837  0.11383733  0.37155653    -0.11400
C1721       C  0.29470578  0.12436206  0.34033379    -0.25400
C1722       C  0.28242967  0.13776845  0.32121488     0.37100
C1723       C  0.23468422  0.13100787  0.37564926     0.06700
F1724       F  0.26089774  0.10591241  0.41351600    -0.19200
H1725       H  0.29590759  0.10354583  0.38725324     0.16500
F1726       F  0.28926094  0.14879506  0.29179672    -0.22900
H1727       H  0.25362287  0.15020931  0.31736305     0.18300
C1728       C  0.22956176  0.13724111  0.41280895     0.26300
C1729       C  0.21044139  0.13489918  0.42623307    -0.11400
C1730       C  0.19611193  0.12615619  0.40298426    -0.25400
C1731       C  0.20100721  0.12122892  0.36477441     0.37200
C1732       C  0.22010617  0.12364479  0.35140296    -0.27100
F1733       F  0.24322367  0.14508233  0.43645995    -0.19200
H1734       H  0.20701950  0.13933280  0.45535816     0.16500
F1735       F  0.18740151  0.11391894  0.34032238    -0.22900
H1736       H  0.22373179  0.11891815  0.32254386     0.18300
C1737       C  0.35818555  0.77111982  0.69862909    -0.26900
C1738       C  0.37527547  0.76057423  0.70595256     0.06700
C1739       C  0.39270636  0.77071705  0.71328752     0.26300
C1740       C  0.39292749  0.79113636  0.71309509    -0.11400
C1741       C  0.37591956  0.80169682  0.70452299    -0.25400
C1742       C  0.35847396  0.79145246  0.69753472     0.37100
C1743       C  0.37476486  0.73904767  0.70380427     0.06700
F1744       F  0.40947582  0.76088310  0.72046269    -0.19200
H1745       H  0.40654576  0.79869301  0.71839695     0.16500
F1746       F  0.34165723  0.80107157  0.68965627    -0.22900
H1747       H  0.34465169  0.76352602  0.69268637     0.18300
C1748       C  0.36217955  0.72826989  0.72745541     0.26300
C1749       C  0.36033727  0.70811979  0.72260094    -0.11400
C1750       C  0.37097436  0.69830000  0.69399779    -0.25400
C1751       C  0.38386686  0.70918243  0.67074050     0.37200
C1752       C  0.38572163  0.72932281  0.67579149    -0.27100
F1753       F  0.35172161  0.73726186  0.75536895    -0.19200
H1754       H  0.35054929  0.70020758  0.74134647     0.16500
F1755       F  0.39448329  0.70052537  0.64264307    -0.22900
H1756       H  0.39534014  0.73745505  0.65703991     0.18300
C1757       C  0.38791418  0.01607197  0.79224678    -0.26900
C1758       C  0.37400729  0.00996762  0.76498954     0.06700
C1759       C  0.35948172  0.02313319  0.75349640     0.26300
C1760       C  0.35903092  0.04198661  0.76837172    -0.11400
C1761       C  0.37305056  0.04841164  0.79512317    -0.25400
C1762       C  0.38745477  0.03508908  0.80736951     0.37100
C1763       C  0.37413002  0.98983814  0.74901380     0.06700
F1764       F  0.34598322  0.01795471  0.72680996    -0.19200
H1765       H  0.34775170  0.05172711  0.75811281     0.16500
F1766       F  0.40120742  0.04041648  0.83342797    -0.22900
H1767       H  0.39908162  0.00605160  0.80196825     0.18300
C1768       C  0.39067255  0.98202520  0.73073939     0.26300
C1769       C  0.39012798  0.96315213  0.71502803    -0.11400
C1770       C  0.37315486  0.95169942  0.71756762    -0.25400
C1771       C  0.35651877  0.95981792  0.73512471     0.37200
C1772       C  0.35709516  0.97856401  0.75066575    -0.27100
F1773       F  0.40723725  0.99272518  0.72766928    -0.19200
H1774       H  0.40317822  0.95728199  0.70185220     0.16500
F1775       F  0.33959737  0.94961968  0.73742134    -0.22900
H1776       H  0.34412711  0.98428325  0.76443498     0.18300
C1777       C  0.36098106  0.76866344  0.16988891    -0.26900
C1778       C  0.37407316  0.75881056  0.19400001     0.06700
C1779       C  0.38699733  0.76961415  0.21691572     0.26300
C1780       C  0.38675029  0.78996671  0.21580262    -0.11400
C1781       C  0.37374224  0.79998694  0.19154513    -0.25400
C1782       C  0.36082954  0.78903900  0.16838293     0.37100
C1783       C  0.37434284  0.73726768  0.19487357     0.06700
F1784       F  0.39961446  0.76045011  0.24093035    -0.19200
H1785       H  0.39684622  0.79789297  0.23401322     0.16500
F1786       F  0.34798125  0.79791431  0.14440121    -0.22900
H1787       H  0.35097212  0.76050541  0.15185241     0.18300
C1788       C  0.35780008  0.72671853  0.20630773     0.26300
C1789       C  0.35811218  0.70635094  0.20643668    -0.11400
C1790       C  0.37479154  0.69612450  0.19452592    -0.25400
C1791       C  0.39148733  0.70676717  0.18368923     0.37200
C1792       C  0.39122089  0.72714899  0.18406978    -0.27100
F1793       F  0.34139728  0.73613369  0.21762172    -0.19200
H1794       H  0.34508605  0.69855941  0.21503761     0.16500
F1795       F  0.40811605  0.69753474  0.17305926    -0.22900
H1796       H  0.40414285  0.73509407  0.17536070     0.18300
C1797       C  0.37520995  0.90045234  0.98579401    -0.26900
C1798       C  0.37572935  0.88302418  0.96470698     0.06700
C1799       C  0.37582147  0.86517914  0.98423380     0.26300
C1800       C  0.37566064  0.86474690  0.02426821    -0.11400
C1801       C  0.37555966  0.88209516  0.04573083    -0.25400
C1802       C  0.37520428  0.90005318  0.02611261     0.37100
C1803       C  0.37612493  0.88316105  0.92232027     0.06700
F1804       F  0.37574721  0.84813938  0.96442874    -0.19200
H1805       H  0.37572278  0.85070851  0.03856836     0.16500
F1806       F  0.37426585  0.91710789  0.04576507    -0.22900
H1807       H  0.37489812  0.91435156  0.97096513     0.18300
C1808       C  0.35956265  0.88849138  0.90117935     0.26300
C1809       C  0.35947134  0.88666759  0.86116535    -0.11400
C1810       C  0.37589964  0.87952744  0.84145201    -0.25400
C1811       C  0.39267148  0.87460039  0.86289153     0.37200
C1812       C  0.39265201  0.87633242  0.90293388    -0.27100
F1813       F  0.34324405  0.89475664  0.91936039    -0.19200
H1814       H  0.34635634  0.89066017  0.84563913     0.16500
F1815       F  0.40908457  0.86806815  0.84541380    -0.22900
H1816       H  0.40553840  0.87211894  0.91903072     0.18300
C1817       C  0.35292126  0.87681895  0.40371389    -0.26900
C1818       C  0.37074455  0.87424731  0.42286568     0.06700
C1819       C  0.38747950  0.86975793  0.40159536     0.26300
C1820       C  0.38651726  0.86847324  0.36163725    -0.11400
C1821       C  0.36885669  0.87165069  0.34206374    -0.25400
C1822       C  0.35192105  0.87561660  0.36361239     0.37100
C1823       C  0.37178607  0.87557665  0.46512787     0.06700
F1824       F  0.40469947  0.86631202  0.41960473    -0.19200
H1825       H  0.39977806  0.86529167  0.34593417     0.16500
F1826       F  0.33441750  0.87821422  0.34610152    -0.22900
H1827       H  0.33979255  0.87997386  0.41990332     0.18300
C1828       C  0.38415511  0.88910995  0.48323910     0.26300
C1829       C  0.38548744  0.88967894  0.52335386    -0.11400
C1830       C  0.37468802  0.87661590  0.54595090    -0.25400
C1831       C  0.36229278  0.86305814  0.52748268     0.37200
C1832       C  0.36079220  0.86273761  0.48752623    -0.27100
F1833       F  0.39476430  0.90188992  0.46209205    -0.19200
H1834       H  0.39509200  0.90025007  0.53672052     0.16500
F1835       F  0.35140674  0.85017712  0.54786927    -0.22900
H1836       H  0.35125312  0.85217353  0.47392496     0.18300
C1837       C  0.34909477  0.01802694  0.27846317    -0.26900
C1838       C  0.36612323  0.00809884  0.26742923     0.06700
C1839       C  0.38429647  0.01709689  0.27356959     0.26300
C1840       C  0.38528899  0.03584957  0.28898633    -0.11400
C1841       C  0.36827199  0.04589576  0.29938879    -0.25400
C1842       C  0.35012524  0.03665725  0.29471133     0.37100
C1843       C  0.36499360  0.98825702  0.25042987     0.06700
F1844       F  0.40114197  0.00769055  0.26506858    -0.19200
H1845       H  0.39945072  0.04265277  0.29245428     0.16500
F1846       F  0.33333877  0.04602455  0.30379234    -0.22900
H1847       H  0.33489775  0.01151512  0.27372890     0.18300
C1848       C  0.35346465  0.97376631  0.26760088     0.26300
C1849       C  0.35378741  0.95473565  0.25355169    -0.11400
C1850       C  0.36567964  0.94957937  0.22221485    -0.25400
C1851       C  0.37654166  0.96428304  0.20385508     0.37200
C1852       C  0.37610964  0.98341910  0.21783552    -0.27100
F1853       F  0.34265077  0.97770052  0.29929215    -0.19200
H1854       H  0.34515277  0.94385068  0.26830073     0.16500
F1855       F  0.38777468  0.96020333  0.17281678    -0.22900
H1856       H  0.38471544  0.99445745  0.20344869     0.18300
C1857       C  0.11014144  0.76757374  0.55473032    -0.26900
C1858       C  0.12586227  0.75733583  0.57066142     0.06700
C1859       C  0.14122552  0.76765900  0.58779078     0.26300
C1860       C  0.14101541  0.78800616  0.58823962    -0.11400
C1861       C  0.12556842  0.79843523  0.57130741    -0.25400
C1862       C  0.10994758  0.78795323  0.55487643     0.37100
C1863       C  0.12628407  0.73588215  0.56888972     0.06700
F1864       F  0.15634011  0.75802591  0.60431965    -0.19200
H1865       H  0.15314447  0.79561531  0.60149259     0.16500
F1866       F  0.09440980  0.79731071  0.53929870    -0.22900
H1867       H  0.09809536  0.75971972  0.54170843     0.18300
C1868       C  0.11323020  0.72478285  0.59074441     0.26300
C1869       C  0.11360940  0.70447084  0.58864562    -0.11400
C1870       C  0.12690410  0.69481294  0.56445753    -0.25400
C1871       C  0.13997698  0.70609640  0.54240785     0.37200
C1872       C  0.13968067  0.72644248  0.54491608    -0.27100
F1873       F  0.10029870  0.73360997  0.61451871    -0.19200
H1874       H  0.10338321  0.69629930  0.60603633     0.16500
F1875       F  0.15302630  0.69759777  0.51841280    -0.22900
H1876       H  0.14980109  0.73490749  0.52777769     0.18300
C1877       C  0.11165882  0.01603746  0.49720643    -0.26900
C1878       C  0.12894874  0.00549762  0.49240860     0.06700
C1879       C  0.14453088  0.01413972  0.47237171     0.26300
C1880       C  0.14297581  0.03330092  0.45872634    -0.11400
C1881       C  0.12585055  0.04410370  0.46465361    -0.25400
C1882       C  0.11001764  0.03505602  0.48341419     0.37100
C1883       C  0.13035577  0.98541189  0.50784377     0.06700
F1884       F  0.16147438  0.00429926  0.46721722    -0.19200
H1885       H  0.15540939  0.03989523  0.44457394     0.16500
F1886       F  0.09286547  0.04455446  0.48848868    -0.22900
H1887       H  0.09930338  0.00945119  0.51166540     0.18300
C1888       C  0.12630621  0.98142844  0.54673772     0.26300
C1889       C  0.12682424  0.96225994  0.56052982    -0.11400
C1890       C  0.13146986  0.94677289  0.53585974    -0.25400
C1891       C  0.13540722  0.95082792  0.49685571     0.37200
C1892       C  0.13491997  0.96995201  0.48319289    -0.27100
F1893       F  0.12209342  0.99611782  0.57146845    -0.19200
H1894       H  0.12373117  0.95953773  0.59059894     0.16500
F1895       F  0.13899979  0.93624525  0.47146644    -0.22900
H1896       H  0.13765203  0.97266228  0.45297388     0.18300
C1897       C  0.22614303  0.87434444  0.65329701    -0.26900
C1898       C  0.24115036  0.87943895  0.62804075     0.06700
C1899       C  0.23658698  0.88373110  0.58951896     0.26300
C1900       C  0.21729217  0.88236432  0.57633131    -0.11400
C1901       C  0.20232734  0.87643556  0.60126881    -0.25400
C1902       C  0.20693857  0.87285509  0.64022230     0.37100
C1903       C  0.26162412  0.87882517  0.64152358     0.06700
F1904       F  0.25082071  0.88921256  0.56473408    -0.19200
H1905       H  0.21412809  0.88554671  0.54647307     0.16500
F1906       F  0.19286265  0.86808848  0.66595457    -0.22900
H1907       H  0.22939434  0.87106697  0.68308729     0.18300
C1908       C  0.26849823  0.89154137  0.67018289     0.26300
C1909       C  0.28786717  0.89030762  0.68308628    -0.11400
C1910       C  0.30063637  0.87623281  0.66789610    -0.25400
C1911       C  0.29340066  0.86324994  0.63968448     0.37200
C1912       C  0.27418711  0.86467663  0.62666580    -0.27100
F1913       F  0.25658552  0.90539435  0.68502631    -0.19200
H1914       H  0.29293942  0.90056302  0.70456778     0.16500
F1915       F  0.30482359  0.84909624  0.62442667    -0.22900
H1916       H  0.26899394  0.85451818  0.60507020     0.18300
C1917       C  0.13940654  0.77100300  0.08239460    -0.26900
C1918       C  0.12568947  0.76140634  0.05912793     0.06700
C1919       C  0.11165303  0.77252577  0.03944883     0.26300
C1920       C  0.11159900  0.79282863  0.04269403    -0.11400
C1921       C  0.12536143  0.80248659  0.06591347    -0.25400
C1922       C  0.13928645  0.79128701  0.08590960     0.37100
C1923       C  0.12597951  0.73983026  0.05614893     0.06700
F1924       F  0.09821463  0.76380735  0.01649452    -0.19200
H1925       H  0.10066599  0.80100890  0.02698358     0.16500
F1926       F  0.15293467  0.79985524  0.10860112    -0.22900
H1927       H  0.15017624  0.76270501  0.09830680     0.18300
C1928       C  0.14337275  0.72984100  0.04782341     0.26300
C1929       C  0.14368087  0.70947256  0.04683987    -0.11400
C1930       C  0.12676999  0.69864837  0.05467003    -0.25400
C1931       C  0.10927448  0.70865711  0.06227831     0.37200
C1932       C  0.10893248  0.72903307  0.06286454    -0.27100
F1933       F  0.16007065  0.73978301  0.04052362    -0.19200
H1934       H  0.15733041  0.70212795  0.04088271     0.16500
F1935       F  0.09246417  0.69878063  0.06890013    -0.22900
H1936       H  0.09537697  0.73640563  0.06948462     0.18300
C1937       C  0.12075151  0.86069586  0.86258208    -0.26900
C1938       C  0.12980505  0.87568951  0.84187986     0.06700
C1939       C  0.13997349  0.89031190  0.86189979     0.26300
C1940       C  0.14078651  0.89000866  0.90205480    -0.11400
C1941       C  0.13133150  0.87524543  0.92285080    -0.25400
C1942       C  0.12145493  0.86042002  0.90264119     0.37100
C1943       C  0.12861514  0.87592030  0.79945827     0.06700
F1944       F  0.14927831  0.90474382  0.84256938    -0.19200
H1945       H  0.14846746  0.90160081  0.91694812     0.16500
F1946       F  0.11255614  0.84557783  0.92153729    -0.22900
H1947       H  0.11285036  0.84926639  0.84761562     0.18300
C1948       C  0.13422727  0.85953450  0.77808649     0.26300
C1949       C  0.13322061  0.85989493  0.73807981    -0.11400
C1950       C  0.12654544  0.87655141  0.71839419    -0.25400
C1951       C  0.12065250  0.89287153  0.73995711     0.37200
C1952       C  0.12173497  0.89249922  0.78011591    -0.27100
F1953       F  0.14120001  0.84335768  0.79585768    -0.19200
H1954       H  0.13792295  0.84705464  0.72248620     0.16500
F1955       F  0.11405658  0.90924364  0.72241807    -0.22900
H1956       H  0.11710258  0.90519760  0.79625426     0.18300
C1957       C  0.14232760  0.87844360  0.35902104    -0.26900
C1958       C  0.12376837  0.87849471  0.34213403     0.06700
C1959       C  0.10728504  0.87581497  0.36525819     0.26300
C1960       C  0.10939729  0.87289048  0.40480011    -0.11400
C1961       C  0.12799058  0.87271596  0.42202676    -0.25400
C1962       C  0.14449073  0.87565958  0.39865342     0.37100
C1963       C  0.12180150  0.87956786  0.30000702     0.06700
F1964       F  0.08916937  0.87608441  0.34951355    -0.19200
H1965       H  0.09638359  0.87107134  0.42207231     0.16500
F1966       F  0.16270901  0.87556551  0.41390293    -0.22900
H1967       H  0.15518906  0.88026168  0.34130126     0.18300
C1968       C  0.12310235  0.89738476  0.28031966     0.26300
C1969       C  0.12210730  0.89777094  0.24006089    -0.11400
C1970       C  0.12015194  0.88036187  0.21910481    -0.25400
C1971       C  0.11837989  0.86263365  0.23918060     0.37200
C1972       C  0.11910977  0.86232436  0.27923699    -0.27100
F1973       F  0.12557001  0.91427996  0.30000635    -0.19200
H1974       H  0.12357394  0.91158465  0.22520829     0.16500
F1975       F  0.11596490  0.84555954  0.22005797    -0.22900
H1976       H  0.11795898  0.84849935  0.29417355     0.18300
C1977       C  0.11461226  0.01691357  0.97653550    -0.26900
C1978       C  0.12516210  0.01215807  0.00983563     0.06700
C1979       C  0.13613646  0.02660649  0.02834727     0.26300
C1980       C  0.13691847  0.04540524  0.01327827    -0.11400
C1981       C  0.12677921  0.05025509  0.97935821    -0.25400
C1982       C  0.11538212  0.03580184  0.96128603     0.37100
C1983       C  0.12586475  0.99186625  0.02383269     0.06700
F1984       F  0.14605998  0.02250695  0.06115475    -0.19200
H1985       H  0.14551667  0.05621467  0.02843028     0.16500
F1986       F  0.10526670  0.03975596  0.92865983    -0.22900
H1987       H  0.10614907  0.00583573  0.96183390     0.18300
C1988       C  0.10908597  0.98240529  0.03740220     0.26300
C1989       C  0.11015379  0.96305980  0.04999807    -0.11400
C1990       C  0.12788185  0.95279447  0.04862112    -0.25400
C1991       C  0.14471216  0.96248812  0.03556482     0.37200
C1992       C  0.14366269  0.98186209  0.02354883    -0.27100
F1993       F  0.09175553  0.99190315  0.03861923    -0.19200
H1994       H  0.09696356  0.95591045  0.05977592     0.16500
F1995       F  0.16220301  0.95328304  0.03446402    -0.22900
H1996       H  0.15676092  0.98903582  0.01333380     0.18300
C1997       C  0.27272407  0.86893410  0.11762743    -0.26900
C1998       C  0.25917826  0.87882603  0.14043103     0.06700
C1999       C  0.26520102  0.88690658  0.17564794     0.26300
C2000       C  0.28456279  0.88505252  0.18766717    -0.11400
C2001       C  0.29819565  0.87511197  0.16479265    -0.25400
C2002       C  0.29202690  0.86710461  0.12944083     0.37100
C2003       C  0.23863555  0.87966172  0.12795760     0.06700
F2004       F  0.25246121  0.89688590  0.19802919    -0.19200
H2005       H  0.28889800  0.89153815  0.21474769     0.16500
F2006       F  0.30460925  0.85768601  0.10580972    -0.22900
H2007       H  0.26827150  0.86237736  0.09067679     0.18300
C2008       C  0.23358580  0.88595547  0.09077149     0.26300
C2009       C  0.21418458  0.88523327  0.07849227    -0.11400
C2010       C  0.19958242  0.87810454  0.10299118    -0.25400
C2011       C  0.20472150  0.87209873  0.14045610     0.37200
C2012       C  0.22404566  0.87290249  0.15264035    -0.27100
F2013       F  0.24740437  0.89290283  0.06648050    -0.19200
H2014       H  0.21061863  0.89007910  0.04968078     0.16500
F2015       F  0.19109174  0.86562366  0.16565801    -0.22900
H2016       H  0.22769592  0.86782021  0.18126419     0.18300
C2017       C  0.52233546  0.13090454  0.84186054    -0.26900
C2018       C  0.51174844  0.11994981  0.81502051     0.06700
C2019       C  0.52166258  0.10845793  0.78818714     0.26300
C2020       C  0.54200319  0.10816754  0.78781457    -0.11400
C2021       C  0.55283036  0.11941621  0.81413479    -0.25400
C2022       C  0.54272693  0.13071593  0.84151695     0.37100
C2023       C  0.49031910  0.12056552  0.81488689     0.06700
F2024       F  0.51161986  0.09759014  0.76225257    -0.19200
H2025       H  0.54926400  0.09926810  0.76648846     0.16500
F2026       F  0.55244196  0.14171648  0.86772280    -0.22900
H2027       H  0.51476264  0.13975988  0.86285505     0.18300
C2028       C  0.47964083  0.10830569  0.83914618     0.26300
C2029       C  0.45929973  0.10878496  0.83857295    -0.11400
C2030       C  0.44921401  0.12147333  0.81369668    -0.25400
C2031       C  0.46009750  0.13357453  0.78890748     0.37200
C2032       C  0.48048843  0.13309084  0.78968606    -0.27100
F2033       F  0.48891716  0.09575213  0.86311776    -0.19200
H2034       H  0.45144836  0.09917174  0.85779252     0.16500
F2035       F  0.45115825  0.14575584  0.76373226    -0.22900
H2036       H  0.48866260  0.14246775  0.77051178     0.18300
C2037       C  0.61519009  0.26674818  0.79656529    -0.26900
C2038       C  0.63091916  0.25655568  0.81262764     0.06700
C2039       C  0.64613112  0.26709384  0.83008459     0.26300
C2040       C  0.64563840  0.28750713  0.83084011    -0.11400
C2041       C  0.63005771  0.29776443  0.81397772    -0.25400
C2042       C  0.61469295  0.28708858  0.79717175     0.37100
C2043       C  0.63115972  0.23496407  0.81114747     0.06700
F2044       F  0.66124838  0.25763668  0.84700412    -0.19200
H2045       H  0.65759007  0.29530590  0.84429016     0.16500
F2046       F  0.59898999  0.29624771  0.78178503    -0.22900
H2047       H  0.60327019  0.25888074  0.78315028     0.18300
C2048       C  0.61548542  0.22417003  0.82594186     0.26300
C2049       C  0.61560512  0.20385651  0.82410528    -0.11400
C2050       C  0.63123023  0.19376990  0.80713640    -0.25400
C2051       C  0.64673994  0.20464985  0.79139578     0.37200
C2052       C  0.64672939  0.22504298  0.79380694    -0.27100
F2053       F  0.60020039  0.23327302  0.84292236    -0.19200
H2054       H  0.60335444  0.19599708  0.83620698     0.16500
F2055       F  0.66199193  0.19567879  0.77404670    -0.22900
H2056       H  0.65880562  0.23315746  0.78165472     0.18300
C2057       C  0.51925005  0.10633077  0.31649492    -0.26900
C2058       C  0.50891970  0.12290503  0.32849666     0.06700
C2059       C  0.51943060  0.13966105  0.33929021     0.26300
C2060       C  0.53977220  0.14003497  0.33628079    -0.11400
C2061       C  0.54999146  0.12380148  0.32226034    -0.25400
C2062       C  0.53955603  0.10671001  0.31340967     0.37100
C2063       C  0.48725033  0.12282181  0.32814770     0.06700
F2064       F  0.51000098  0.15597775  0.35101187    -0.19200
H2065       H  0.54749769  0.15330347  0.34372095     0.16500
F2066       F  0.54898087  0.09029112  0.30217284    -0.22900
H2067       H  0.51151761  0.09304836  0.30917520     0.18300
C2068       C  0.47700510  0.11648808  0.29538033     0.26300
C2069       C  0.45664062  0.11641577  0.29503148    -0.11400
C2070       C  0.44597618  0.12282911  0.32710099    -0.25400
C2071       C  0.45621738  0.12934126  0.35979127     0.37200
C2072       C  0.47664594  0.12923353  0.36026780    -0.27100
F2073       F  0.48668569  0.11081595  0.26327034    -0.19200
H2074       H  0.44917871  0.11153082  0.26928461     0.16500
F2075       F  0.44653913  0.13531430  0.39165412    -0.22900
H2076       H  0.48421205  0.13396293  0.38599993     0.18300
C2077       C  0.64639858  0.27115663  0.31528896    -0.26900
C2078       C  0.63126969  0.26095648  0.29709291     0.06700
C2079       C  0.61598947  0.27140664  0.27986355     0.26300
C2080       C  0.61567680  0.29173845  0.28162504    -0.11400
C2081       C  0.63041738  0.30203138  0.30111718    -0.25400
C2082       C  0.64598694  0.29149917  0.31755170     0.37100
C2083       C  0.63074943  0.23944292  0.29852489     0.06700
F2084       F  0.60129217  0.26190479  0.26158842    -0.19200
H2085       H  0.60356968  0.29941083  0.26849670     0.16500
F2086       F  0.66077066  0.30077974  0.33597736    -0.22900
H2087       H  0.65826617  0.26328670  0.32882118     0.18300
C2088       C  0.64584221  0.22816059  0.28286596     0.26300
C2089       C  0.64501264  0.20780364  0.28480540    -0.11400
C2090       C  0.62930804  0.19837237  0.30299525    -0.25400
C2091       C  0.61439384  0.20984249  0.31927639     0.37200
C2092       C  0.61510214  0.23012082  0.31667661    -0.27100
F2093       F  0.66120394  0.23682070  0.26522963    -0.19200
H2094       H  0.65678059  0.19941964  0.27229761     0.16500
F2095       F  0.59901745  0.20156553  0.33756990    -0.22900
H2096       H  0.60347456  0.23864688  0.32936983     0.18300
C2097       C  0.61731106  0.11116535  0.59921684    -0.26900
C2098       C  0.62755404  0.12560913  0.57940364     0.06700
C2099       C  0.63784557  0.13991078  0.60003612     0.26300
C2100       C  0.63848351  0.13915208  0.64022452    -0.11400
C2101       C  0.62839431  0.12448746  0.66011369    -0.25400
C2102       C  0.61751591  0.11064746  0.63916043     0.37100
C2103       C  0.62749950  0.12523503  0.53717177     0.06700
F2104       F  0.64755750  0.15427964  0.58131406    -0.19200
H2105       H  0.64671006  0.15010477  0.65582908     0.16500
F2106       F  0.60749608  0.09623488  0.65715103    -0.22900
H2107       H  0.60913194  0.10018389  0.58354707     0.18300
C2108       C  0.63534219  0.10922057  0.51748222     0.26300
C2109       C  0.63411785  0.10820992  0.47750523    -0.11400
C2110       C  0.62487787  0.12305754  0.45651475    -0.25400
C2111       C  0.61685390  0.13905478  0.47659894     0.37200
C2112       C  0.61834557  0.14012653  0.51655308    -0.27100
F2113       F  0.64425206  0.09460837  0.53704305    -0.19200
H2114       H  0.64047852  0.09576871  0.46298210     0.16500
F2115       F  0.60734272  0.15357728  0.45789674    -0.22900
H2116       H  0.61192001  0.15239005  0.53157974     0.18300
C2117       C  0.62446533  0.13520628  0.01606166    -0.26900
C2118       C  0.63049705  0.11897752  0.03725593     0.06700
C2119       C  0.63581446  0.10185387  0.01786846     0.26300
C2120       C  0.63477602  0.10099589  0.97765994    -0.11400
C2121       C  0.62842880  0.11719947  0.95620542    -0.25400
C2122       C  0.62352269  0.13446941  0.97603318     0.37100
C2123       C  0.62993957  0.11986566  0.07961986     0.06700
F2124       F  0.64139927  0.08582677  0.03787914    -0.19200
H2125       H  0.63874791  0.08754368  0.96334933     0.16500
F2126       F  0.61779935  0.15074182  0.95696174    -0.22900
H2127       H  0.62034895  0.14853029  0.03072583     0.18300
C2128       C  0.64711776  0.12019108  0.10159618     0.26300
C2129       C  0.64613005  0.12214354  0.14163399    -0.11400
C2130       C  0.62800056  0.12349662  0.16032234    -0.25400
C2131       C  0.61083766  0.12300206  0.13803030     0.37200
C2132       C  0.61188484  0.12137461  0.09809336    -0.27100
F2133       F  0.66478824  0.11898049  0.08428824    -0.19200
H2134       H  0.65955618  0.12230678  0.15809139     0.16500
F2135       F  0.59301584  0.12440924  0.15466569    -0.22900
H2136       H  0.59852849  0.12127407  0.08141054     0.18300
C2137       C  0.02081006  0.11260965  0.90562030    -0.26900
C2138       C  0.01039938  0.12129156  0.93589499     0.06700
C2139       C  0.02088526  0.12962074  0.96654822     0.26300
C2140       C  0.04125692  0.12966708  0.96635825    -0.11400
C2141       C  0.05175015  0.12113267  0.93602156    -0.25400
C2142       C  0.04126823  0.11249489  0.90557556     0.37100
C2143       C  0.98868821  0.12160900  0.93547136     0.06700
F2144       F  0.01144790  0.13724199  0.99732576    -0.19200
H2145       H  0.04885213  0.13613103  0.99053699     0.16500
F2146       F  0.05071602  0.10429422  0.87540653    -0.22900
H2147       H  0.01305754  0.10612267  0.88166062     0.18300
C2148       C  0.97839624  0.13903410  0.94194860     0.26300
C2149       C  0.95800545  0.13910899  0.94240130    -0.11400
C2150       C  0.94736761  0.12193229  0.93571054    -0.25400
C2151       C  0.95764540  0.10452035  0.92877244     0.37200
C2152       C  0.97808380  0.10441678  0.92868931    -0.27100
F2153       F  0.98804088  0.15613225  0.94681446    -0.19200
H2154       H  0.95050332  0.15276038  0.94732802     0.16500
F2155       F  0.94798882  0.08749264  0.92309497    -0.22900
H2156       H  0.98566724  0.09080202  0.92386919     0.18300
C2157       C  0.85617937  0.23126490  0.91565811    -0.26900
C2158       C  0.87279588  0.24178414  0.92679112     0.06700
C2159       C  0.88983323  0.23157666  0.93685439     0.26300
C2160       C  0.89005996  0.21121649  0.93624417    -0.11400
C2161       C  0.87340957  0.20066442  0.92529258    -0.25400
C2162       C  0.85645235  0.21090911  0.91466684     0.37100
C2163       C  0.87209043  0.26333216  0.92871643     0.06700
F2164       F  0.90604390  0.24125980  0.94858957    -0.19200
H2165       H  0.90327937  0.20366386  0.94458693     0.16500
F2166       F  0.83989184  0.20128023  0.90481162    -0.22900
H2167       H  0.84291171  0.23886940  0.90781871     0.18300
C2168       C  0.88609061  0.27469315  0.90970709     0.26300
C2169       C  0.88547484  0.29495522  0.91223516    -0.11400
C2170       C  0.87089130  0.30441815  0.93366772    -0.25400
C2171       C  0.85669095  0.29301631  0.95232793     0.37200
C2172       C  0.85730939  0.27266737  0.94968800    -0.27100
F2173       F  0.90015969  0.26622954  0.88800724    -0.19200
H2174       H  0.89657392  0.30325164  0.89731583     0.16500
F2175       F  0.84214645  0.30143174  0.97282911    -0.22900
H2176       H  0.84633580  0.26413320  0.96445152     0.18300
C2177       C  0.76838393  0.13808089  0.88076727    -0.26900
C2178       C  0.75856363  0.12028927  0.88507177     0.06700
C2179       C  0.76772189  0.10503144  0.90519470     0.26300
C2180       C  0.78656268  0.10747940  0.91981066    -0.11400
C2181       C  0.79668247  0.12502724  0.91410799    -0.25400
C2182       C  0.78725492  0.14047996  0.89508172     0.37100
C2183       C  0.73890435  0.11778542  0.86811227     0.06700
F2184       F  0.75888260  0.08743784  0.90895804    -0.19200
H2185       H  0.79361908  0.09527369  0.93386394     0.16500
F2186       F  0.79636864  0.15783960  0.88988329    -0.22900
H2187       H  0.76145221  0.15011832  0.86593302     0.18300
C2188       C  0.72336247  0.11103757  0.89063536     0.26300
C2189       C  0.70478794  0.10926194  0.87474637    -0.11400
C2190       C  0.70115879  0.11452221  0.83630557    -0.25400
C2191       C  0.71673098  0.12112606  0.81355587     0.37200
C2192       C  0.73546209  0.12268635  0.82940986    -0.27100
F2193       F  0.72589790  0.10704954  0.92853249    -0.19200
H2194       H  0.69301229  0.10449499  0.89317674     0.16500
F2195       F  0.71390771  0.12594968  0.77613641    -0.22900
H2196       H  0.74730596  0.12779441  0.81151967     0.18300
C2197       C  0.97718822  0.13587381  0.46061346    -0.26900
C2198       C  0.98654115  0.12244706  0.43665755     0.06700
C2199       C  0.97546852  0.11101178  0.41133391     0.26300
C2200       C  0.95520556  0.11288883  0.41042188    -0.11400
C2201       C  0.94565502  0.12626180  0.43461655    -0.25400
C2202       C  0.95696062  0.13794573  0.45950997     0.37100
C2203       C  0.00791639  0.12085134  0.43775119     0.06700
F2204       F  0.98423885  0.09776592  0.38812684    -0.19200
H2205       H  0.94697466  0.10365190  0.39100572     0.16500
F2206       F  0.94858457  0.15137096  0.48285309    -0.22900
H2207       H  0.98565461  0.14494477  0.47998452     0.18300
C2208       C  0.01903800  0.12614073  0.40563876     0.26300
C2209       C  0.03933741  0.12583365  0.40764841    -0.11400
C2210       C  0.04885411  0.11991608  0.44148846    -0.25400
C2211       C  0.03763606  0.11420871  0.47343278     0.37200
C2212       C  0.01730255  0.11488460  0.47158112    -0.27100
F2213       F  0.01024771  0.13211640  0.37271394    -0.19200
H2214       H  0.04762446  0.13016311  0.38260265     0.16500
F2215       F  0.04625573  0.10851015  0.50673147    -0.22900
H2216       H  0.00883873  0.11080942  0.49656957     0.18300
C2217       C  0.88650753  0.23509416  0.46948886    -0.26900
C2218       C  0.87218766  0.24579258  0.44991287     0.06700
C2219       C  0.85781245  0.23585452  0.42887661     0.26300
C2220       C  0.85799486  0.21556137  0.42699229    -0.11400
C2221       C  0.87239396  0.20471960  0.44626116    -0.25400
C2222       C  0.88655141  0.21472348  0.46810849     0.37100
C2223       C  0.87269914  0.26730439  0.45010119     0.06700
F2224       F  0.84396117  0.24581047  0.40908865    -0.19200
H2225       H  0.84681649  0.20831892  0.41014396     0.16500
F2226       F  0.90064924  0.20493025  0.48750524    -0.22900
H2227       H  0.89769501  0.24258160  0.48590987     0.18300
C2228       C  0.85643924  0.27813856  0.46204362     0.26300
C2229       C  0.85667755  0.29844885  0.45981179    -0.11400
C2230       C  0.87301992  0.30829061  0.44521810    -0.25400
C2231       C  0.88949839  0.29740808  0.43411754     0.37200
C2232       C  0.88930481  0.27710076  0.43678212    -0.27100
F2233       F  0.84033749  0.26905974  0.47589135    -0.19200
H2234       H  0.84387499  0.30647102  0.46880000     0.16500
F2235       F  0.90584207  0.30633885  0.42095500    -0.22900
H2236       H  0.90199438  0.26894736  0.42757258     0.18300
C2237       C  0.88422794  0.12836629  0.64539195    -0.26900
C2238       C  0.86888206  0.11865567  0.66385268     0.06700
C2239       C  0.85280746  0.11242185  0.64186936     0.26300
C2240       C  0.85230784  0.11567069  0.60218654    -0.11400
C2241       C  0.86772372  0.12530502  0.58353125    -0.25400
C2242       C  0.88371553  0.13173659  0.60578443     0.37100
C2243       C  0.86919094  0.11633901  0.70627977     0.06700
F2244       F  0.83770406  0.10291020  0.65865756    -0.19200
H2245       H  0.83983445  0.11045892  0.58599459     0.16500
F2246       F  0.89895370  0.14125225  0.58948685    -0.22900
H2247       H  0.89654859  0.13370973  0.66187546     0.18300
C2248       C  0.88565618  0.10891308  0.72565082     0.26300
C2249       C  0.88626764  0.10863508  0.76595071    -0.11400
C2250       C  0.87063603  0.11603345  0.78743566    -0.25400
C2251       C  0.85388431  0.12265020  0.76794184     0.37200
C2252       C  0.85323826  0.12279070  0.72789653    -0.27100
F2253       F  0.90120768  0.10216446  0.70562146    -0.19200
H2254       H  0.89926657  0.10335364  0.78033248     0.16500
F2255       F  0.83813680  0.12923335  0.78762051    -0.22900
H2256       H  0.84043912  0.12865272  0.71371014     0.18300
C2257       C  0.85704895  0.14138899  0.22676886    -0.26900
C2258       C  0.86941976  0.12925849  0.20569013     0.06700
C2259       C  0.88205007  0.11652689  0.22511423     0.26300
C2260       C  0.88246195  0.11623399  0.26531201    -0.11400
C2261       C  0.87042591  0.12876873  0.28666824    -0.25400
C2262       C  0.85750114  0.14124229  0.26683811     0.37100
C2263       C  0.86916935  0.13020294  0.16341615     0.06700
F2264       F  0.89379907  0.10427339  0.20516117    -0.19200
H2265       H  0.89239161  0.10634664  0.27972389     0.16500
F2266       F  0.84513644  0.15321833  0.28599311    -0.22900
H2267       H  0.84714690  0.15119960  0.21203680     0.18300
C2268       C  0.85251886  0.12457379  0.14279725     0.26300
C2269       C  0.85241999  0.12550087  0.10272138    -0.11400
C2270       C  0.86884400  0.13225203  0.08249971    -0.25400
C2271       C  0.88532139  0.13846893  0.10351087     0.37200
C2272       C  0.88545884  0.13726425  0.14360465    -0.27100
F2273       F  0.83656240  0.11771296  0.16144105    -0.19200
H2274       H  0.83949193  0.12065029  0.08746892     0.16500
F2275       F  0.90147791  0.14526371  0.08547343    -0.22900
H2276       H  0.89831982  0.14191429  0.15934536     0.18300
C2277       C  0.76894569  0.10976503  0.38568040    -0.26900
C2278       C  0.75883228  0.12652278  0.37380093     0.06700
C2279       C  0.76777456  0.14484563  0.37848520     0.26300
C2280       C  0.78653296  0.14618925  0.39421561    -0.11400
C2281       C  0.79653863  0.12939029  0.40624378    -0.25400
C2282       C  0.78753483  0.11113429  0.40187272     0.37100
C2283       C  0.73858680  0.12459032  0.35894995     0.06700
F2284       F  0.75823925  0.16146780  0.36889025    -0.19200
H2285       H  0.79325616  0.16040442  0.39710771     0.16500
F2286       F  0.79704996  0.09450688  0.41153171    -0.22900
H2287       H  0.76245958  0.09549092  0.38209282     0.18300
C2288       C  0.73232734  0.13388463  0.32501109     0.26300
C2289       C  0.71293685  0.13201124  0.31262844    -0.11400
C2290       C  0.69950668  0.12066711  0.33350280    -0.25400
C2291       C  0.70608183  0.11092301  0.36676875     0.37200
C2292       C  0.72529451  0.11298714  0.37923529    -0.27100
F2293       F  0.74496914  0.14448341  0.30350657    -0.19200
H2294       H  0.70840454  0.13956334  0.28675288     0.16500
F2295       F  0.69386239  0.09982965  0.38822602    -0.22900
H2296       H  0.72972587  0.10571631  0.40549011     0.18300
C2297       C  0.88668664  0.77638080  0.56200431    -0.26900
C2298       C  0.87161416  0.76698041  0.54204293     0.06700
C2299       C  0.85746284  0.77826526  0.52316059     0.26300
C2300       C  0.85825543  0.79863444  0.52500967    -0.11400
C2301       C  0.87309747  0.80813941  0.54586543    -0.25400
C2302       C  0.88750103  0.79669166  0.56399561     0.37100
C2303       C  0.87053370  0.74542723  0.54247229     0.06700
F2304       F  0.84300630  0.76959030  0.50267824    -0.19200
H2305       H  0.84706416  0.80697175  0.51036503     0.16500
F2306       F  0.90232996  0.80500801  0.58399977    -0.22900
H2307       H  0.89770758  0.76789035  0.57683528     0.18300
C2308       C  0.88630825  0.73415345  0.52962806     0.26300
C2309       C  0.88589544  0.71386829  0.53326520    -0.11400
C2310       C  0.86989288  0.70443173  0.55031367    -0.25400
C2311       C  0.85391743  0.71575452  0.56248192     0.37200
C2312       C  0.85425020  0.73604283  0.55833298    -0.27100
F2313       F  0.90213144  0.74280585  0.51362416    -0.19200
H2314       H  0.89833992  0.70554223  0.52337268     0.16500
F2315       F  0.83792105  0.70725531  0.57812267    -0.22900
H2316       H  0.84196477  0.74452525  0.56850676     0.18300
C2317       C  0.98077406  0.87093759  0.58596893    -0.26900
C2318       C  0.99160974  0.88489770  0.56590163     0.06700
C2319       C  0.98186873  0.89863999  0.54296073     0.26300
C2320       C  0.96151593  0.89807821  0.53980633    -0.11400
C2321       C  0.95059799  0.88391514  0.55970332    -0.25400
C2322       C  0.96052749  0.87042873  0.58315345     0.37100
C2323       C  0.01308504  0.88388044  0.56723811     0.06700
F2324       F  0.99205495  0.91210453  0.52264119    -0.19200
H2325       H  0.95431144  0.90868919  0.52159010     0.16500
F2326       F  0.95079517  0.85643748  0.60290179    -0.22900
H2327       H  0.98811152  0.86020893  0.60371195     0.18300
C2328       C  0.02440692  0.89939815  0.58124500     0.26300
C2329       C  0.04471044  0.89756361  0.58357503    -0.11400
C2330       C  0.05398251  0.88031103  0.57162626    -0.25400
C2331       C  0.04246348  0.86478022  0.55788743     0.37200
C2332       C  0.02227118  0.86661313  0.55585214    -0.27100
F2333       F  0.01581646  0.91610138  0.59337800    -0.19200
H2334       H  0.05318950  0.90973707  0.59426013     0.16500
F2335       F  0.05061194  0.84767905  0.54674616    -0.22900
H2336       H  0.01370917  0.85446853  0.54524398     0.18300
C2337       C  0.86708604  0.99191406  0.53453334    -0.26900
C2338       C  0.87403892  0.99625972  0.49746576     0.06700
C2339       C  0.88218295  0.98131585  0.47528284     0.26300
C2340       C  0.88317806  0.96240870  0.48968004    -0.11400
C2341       C  0.87606616  0.95781343  0.52657661    -0.25400
C2342       C  0.86808028  0.97286132  0.54909859     0.37100
C2343       C  0.87267481  0.01628213  0.48172581     0.06700
F2344       F  0.88859878  0.98484981  0.43905555    -0.19200
H2345       H  0.88923614  0.95122812  0.47129523     0.16500
F2346       F  0.86134425  0.96926400  0.58505174    -0.22900
H2347       H  0.86094400  0.00333377  0.55225147     0.18300
C2348       C  0.85473574  0.02609830  0.48070449     0.26300
C2349       C  0.85369542  0.04516819  0.46682880    -0.11400
C2350       C  0.87044371  0.05474994  0.45326423    -0.25400
C2351       C  0.88827915  0.04463478  0.45284256     0.37200
C2352       C  0.88933766  0.02560344  0.46711798    -0.27100
F2353       F  0.83819207  0.01717443  0.49282431    -0.19200
H2354       H  0.83974495  0.05258177  0.46713218     0.16500
F2355       F  0.90487122  0.05345033  0.44064452    -0.22900
H2356       H  0.90332457  0.01826452  0.46763566     0.18300
C2357       C  0.87357125  0.77291529  0.08733494    -0.26900
C2358       C  0.87917670  0.76269508  0.05421919     0.06700
C2359       C  0.88399002  0.77320427  0.02081662     0.26300
C2360       C  0.88325220  0.79355913  0.02089119    -0.11400
C2361       C  0.87727860  0.80370938  0.05387655    -0.25400
C2362       C  0.87245804  0.79316856  0.08720182     0.37100
C2363       C  0.87892915  0.74113084  0.05468543     0.06700
F2364       F  0.88860859  0.76383879  0.98771169    -0.19200
H2365       H  0.88689090  0.80138306  0.99480532     0.16500
F2366       F  0.86700027  0.80241347  0.11995427    -0.22900
H2367       H  0.86996864  0.76514314  0.11350930     0.18300
C2368       C  0.89463796  0.73010240  0.04054554     0.26300
C2369       C  0.89396857  0.70976067  0.04182548     0.01400
C2370       C  0.87784378  0.70011434  0.05785173    -0.25400
C2371       C  0.86222524  0.71117709  0.07221514     0.37200
C2372       C  0.86277838  0.73143851  0.07041028    -0.27100
F2373       F  0.91087736  0.73892555  0.02667559    -0.19200
H2374       H  0.90624938  0.70154958  0.03093808     0.16500
F2375       F  0.84617836  0.70246299  0.08720866    -0.22900
H2376       H  0.85043567  0.73960971  0.08112881     0.18300
C2377       C  0.97792031  0.88819728  0.09443899    -0.26900
C2378       C  0.98877504  0.88232480  0.06218461     0.06700
C2379       C  0.97877057  0.87694692  0.02842776     0.26300
C2380       C  0.95847107  0.87714208  0.02739214    -0.11400
C2381       C  0.94766978  0.88314420  0.05947420    -0.25400
C2382       C  0.95757345  0.88891595  0.09300296     0.37100
C2383       C  0.01040233  0.88170139  0.06392043     0.06700
F2384       F  0.98854751  0.87190426  0.99604292    -0.19200
H2385       H  0.95115863  0.87282590  0.00108860     0.16500
F2386       F  0.94763552  0.89462399  0.12476332    -0.22900
H2387       H  0.98517300  0.89197400  0.12109912     0.18300
C2388       C  0.02111248  0.89680329  0.08142500     0.26300
C2389       C  0.04142685  0.89598779  0.08280101    -0.11400
C2390       C  0.05155552  0.88038587  0.06604349    -0.25400
C2391       C  0.04085964  0.86536953  0.04816244     0.37200
C2392       C  0.02053672  0.86592487  0.04776979    -0.27100
F2393       F  0.01204043  0.91268638  0.09616947    -0.19200
H2394       H  0.04926204  0.90786474  0.09638624     0.16500
F2395       F  0.04993179  0.85003015  0.03128120    -0.22900
H2396       H  0.01270484  0.85385338  0.03489111     0.18300
C2397       C  0.88811168  0.86878102  0.84541217    -0.26900
C2398       C  0.87316923  0.87823975  0.82521264     0.06700
C2399       C  0.85728677  0.88595115  0.84553304     0.26300
C2400       C  0.85656671  0.88444828  0.88550586    -0.11400
C2401       C  0.87168971  0.87531003  0.90599846    -0.25400
C2402       C  0.88750519  0.86736795  0.88541812     0.37100
C2403       C  0.87419832  0.87975562  0.78292702     0.06700
F2404       F  0.84233569  0.89470151  0.82668924    -0.19200
H2405       H  0.84422092  0.89070371  0.90043841     0.16500
F2406       F  0.90251241  0.85841353  0.90374680    -0.22900
H2407       H  0.90045601  0.86273164  0.83012591     0.18300
C2408       C  0.87316910  0.89793523  0.76448941     0.26300
C2409       C  0.87431814  0.89910044  0.72444650    -0.11400
C2410       C  0.87654912  0.88218933  0.70211451    -0.25400
C2411       C  0.87745937  0.86396117  0.72077548     0.37200
C2412       C  0.87641684  0.86285294  0.76078975    -0.27100
F2413       F  0.87145726  0.91458826  0.78524623    -0.19200
H2414       H  0.87358985  0.91328818  0.71090905     0.16500
F2415       F  0.87874571  0.84712822  0.70045790    -0.22900
H2416       H  0.87703128  0.84870616  0.77457279     0.18300
C2417       C  0.86149145  0.86710053  0.34522482    -0.26900
C2418       C  0.87244472  0.88117277  0.32525160     0.06700
C2419       C  0.88257826  0.89544498  0.34634611     0.26300
C2420       C  0.88198184  0.89540575  0.38630789    -0.11400
C2421       C  0.87136008  0.88118656  0.40631474    -0.25400
C2422       C  0.86095300  0.86704072  0.38544132     0.37100
C2423       C  0.87338870  0.88100349  0.28263802     0.06700
F2424       F  0.89359327  0.90914200  0.32847925    -0.19200
H2425       H  0.89001708  0.90656682  0.40171805     0.16500
F2426       F  0.85077147  0.85286810  0.40379029    -0.22900
H2427       H  0.85327753  0.85613614  0.32966474     0.18300
C2428       C  0.87643863  0.86356784  0.26222058     0.26300
C2429       C  0.87738239  0.86379050  0.22212893    -0.11400
C2430       C  0.87576560  0.88138276  0.20169264    -0.25400
C2431       C  0.87312925  0.89882065  0.22206948     0.37200
C2432       C  0.87161389  0.89853641  0.26203966    -0.27100
F2433       F  0.87891876  0.84638807  0.28092815    -0.19200
H2434       H  0.87953180  0.85014969  0.20698849     0.16500
F2435       F  0.87124284  0.91605431  0.20333673    -0.22900
H2436       H  0.86880438  0.91211227  0.27690887     0.18300
C2437       C  0.85771283  0.97771651  0.98053474    -0.26900
C2438       C  0.86893458  0.99152930  0.00014687     0.06700
C2439       C  0.88019386  0.98574107  0.03184510     0.26300
C2440       C  0.88023873  0.96625775  0.04367769    -0.11400
C2441       C  0.86910780  0.95222681  0.02395655    -0.25400
C2442       C  0.85783457  0.95822784  0.99199168     0.37100
C2443       C  0.86878554  0.01199077  0.98740676     0.06700
F2444       F  0.89094277  0.99901472  0.05156332    -0.19200
H2445       H  0.88904381  0.96216050  0.06826511     0.16500
F2446       F  0.84708549  0.94531935  0.97131263    -0.22900
H2447       H  0.84900448  0.98203263  0.95591911     0.18300
C2448       C  0.88516097  0.02014289  0.96945034     0.26300
C2449       C  0.88496367  0.03964002  0.95784892    -0.11400
C2450       C  0.86850347  0.05135150  0.96439056    -0.25400
C2451       C  0.85200293  0.04300057  0.98211561     0.37200
C2452       C  0.85215815  0.02342971  0.99318282    -0.27100
F2453       F  0.90127874  0.00918645  0.96297464    -0.19200
H2454       H  0.89784463  0.04567514  0.94441495     0.16500
F2455       F  0.83565958  0.05364418  0.98853931    -0.22900
H2456       H  0.83938717  0.01723249  0.00676908     0.18300
C2457       C  0.64181102  0.76590179  0.68030694    -0.26900
C2458       C  0.62472066  0.75673796  0.69310912     0.06700
C2459       C  0.60873335  0.76825443  0.70411718     0.26300
C2460       C  0.60992150  0.78855850  0.70226894    -0.11400
C2461       C  0.62696041  0.79773341  0.68910127    -0.25400
C2462       C  0.64295565  0.78617862  0.67811878     0.37100
C2463       C  0.62387079  0.73520173  0.69494110     0.06700
F2464       F  0.59212585  0.75991384  0.71744018    -0.19200
H2465       H  0.59740827  0.79712577  0.71089019     0.16500
F2466       F  0.65985259  0.79443720  0.66602455    -0.22900
H2467       H  0.65429066  0.75728397  0.67166257     0.18300
C2468       C  0.60872437  0.72484123  0.67695760     0.26300
C2469       C  0.60879987  0.70450303  0.67697493    -0.11400
C2470       C  0.62394561  0.69403904  0.69485523    -0.25400
C2471       C  0.63884205  0.70447082  0.71373045     0.37200
C2472       C  0.63880051  0.72483517  0.71349378    -0.27100
F2473       F  0.59428376  0.73433805  0.65794971    -0.19200
H2474       H  0.59706901  0.69693856  0.66233527     0.16500
F2475       F  0.65371776  0.69509987  0.73161380    -0.22900
H2476       H  0.65055763  0.73257694  0.72768666     0.18300
C2477       C  0.52371785  0.86689548  0.70471839    -0.26900
C2478       C  0.51393085  0.87740393  0.67589099     0.06700
C2479       C  0.52516506  0.88774317  0.64877559     0.26300
C2480       C  0.54560190  0.88731963  0.65052813    -0.11400
C2481       C  0.55533806  0.87647890  0.67905134    -0.25400
C2482       C  0.54405069  0.86617067  0.70608090     0.37100
C2483       C  0.49213171  0.87752595  0.67503698     0.06700
F2484       F  0.51648636  0.89789069  0.61998644    -0.19200
H2485       H  0.55380548  0.89536082  0.62922003     0.16500
F2486       F  0.55255211  0.85542373  0.73422181    -0.22900
H2487       H  0.51559215  0.85927815  0.72672566     0.18300
C2488       C  0.48143646  0.86038385  0.68255282     0.26300
C2489       C  0.46112352  0.86095282  0.68572184    -0.11400
C2490       C  0.45086366  0.87841463  0.68019312    -0.25400
C2491       C  0.46137588  0.89532738  0.67043630     0.37200
C2492       C  0.48178360  0.89491796  0.66856558    -0.27100
F2493       F  0.49058279  0.84297193  0.68654464    -0.19200
H2494       H  0.45335449  0.84760167  0.69226276     0.16500
F2495       F  0.45201982  0.91246176  0.66429779    -0.22900
H2496       H  0.48949746  0.90841146  0.66315993     0.18300
C2497       C  0.64077415  0.97270809  0.75343179    -0.26900
C2498       C  0.62876275  0.98590178  0.73393378     0.06700
C2499       C  0.61835525  0.97951594  0.70138250     0.26300
C2500       C  0.61972523  0.96009951  0.68921348    -0.11400
C2501       C  0.63162034  0.94677232  0.70903593    -0.25400
C2502       C  0.64224896  0.95341049  0.74133377     0.37100
C2503       C  0.62749642  0.00628711  0.74772986     0.06700
F2504       F  0.60646309  0.99190079  0.68201897    -0.19200
H2505       H  0.61130450  0.95546004  0.66445742     0.16500
F2506       F  0.65389427  0.94127054  0.76188258    -0.22900
H2507       H  0.64914829  0.97741118  0.77822438     0.18300
C2508       C  0.62341388  0.01040263  0.78657198     0.26300
C2509       C  0.62347779  0.02964763  0.79988623    -0.11400
C2510       C  0.62715866  0.04505563  0.77451979    -0.25400
C2511       C  0.63097156  0.04097267  0.73559898     0.37200
C2512       C  0.63126192  0.02174371  0.72246661    -0.27100
F2513       F  0.61894583  0.99582452  0.81139802    -0.19200
H2514       H  0.62017867  0.03256490  0.82979214     0.16500
F2515       F  0.63492501  0.05558511  0.71048272    -0.22900
H2516       H  0.63474397  0.01888719  0.69260672     0.18300
C2517       C  0.73329044  0.89397816  0.64223233    -0.26900
C2518       C  0.74334547  0.87776337  0.62755769     0.06700
C2519       C  0.73448411  0.85927479  0.62990669     0.26300
C2520       C  0.71570585  0.85733867  0.64512817    -0.11400
C2521       C  0.70560109  0.87364449  0.65920426    -0.25400
C2522       C  0.71472618  0.89197479  0.65816215     0.37100
C2523       C  0.76322874  0.88040610  0.61124950     0.06700
F2524       F  0.74403559  0.84302013  0.61821663    -0.19200
H2525       H  0.70899665  0.84305099  0.64577942     0.16500
F2526       F  0.70530968  0.90817609  0.67055351    -0.22900
H2527       H  0.73967670  0.90838566  0.64067095     0.18300
C2528       C  0.76896871  0.87151078  0.57654592     0.26300
C2529       C  0.78800253  0.87388525  0.56275235    -0.11400
C2530       C  0.80158116  0.88544327  0.58277273    -0.25400
C2531       C  0.79547112  0.89506130  0.61648870     0.37200
C2532       C  0.77664107  0.89237543  0.63055934    -0.27100
F2533       F  0.75616352  0.86079116  0.55558092    -0.19200
H2534       H  0.79215620  0.86650759  0.53647689     0.16500
F2535       F  0.80781599  0.90658886  0.63686235    -0.22900
H2536       H  0.77265836  0.89943654  0.65727086     0.18300
C2537       C  0.61888851  0.72997986  0.21847746    -0.26900
C2538       C  0.62196520  0.74034843  0.18426103     0.06700
C2539       C  0.62513442  0.72998372  0.14994592     0.26300
C2540       C  0.62568612  0.70965333  0.15023930    -0.11400
C2541       C  0.62282158  0.69927897  0.18455037    -0.25400
C2542       C  0.61919138  0.70964194  0.21870526     0.37100
C2543       C  0.62276969  0.76189979  0.18491248     0.06700
F2544       F  0.62751605  0.73950401  0.11607652    -0.19200
H2545       H  0.62825077  0.70199227  0.12347601     0.16500
F2546       F  0.61669174  0.70018936  0.25260520    -0.22900
H2547       H  0.61674420  0.73766786  0.24534593     0.18300
C2548       C  0.60823451  0.77291116  0.20329215     0.26300
C2549       C  0.60948175  0.79322989  0.20418829    -0.11400
C2550       C  0.62513300  0.80295313  0.18657678    -0.25400
C2551       C  0.63975925  0.79184611  0.16847284     0.37200
C2552       C  0.63854487  0.77157003  0.16783619    -0.27100
F2553       F  0.59257267  0.76406578  0.21949227    -0.19200
H2554       H  0.59794637  0.80138134  0.21809318     0.16500
F2555       F  0.65537509  0.80047839  0.15164594    -0.22900
H2556       H  0.65013601  0.76335064  0.15425225     0.18300
C2557       C  0.52025722  0.88728985  0.15713840    -0.26900
C2558       C  0.51054092  0.87968814  0.18944626     0.06700
C2559       C  0.52185672  0.87235905  0.22002236     0.26300
C2560       C  0.54224282  0.87266383  0.21810972    -0.11400
C2561       C  0.55197613  0.88047908  0.18601253    -0.25400
C2562       C  0.54067789  0.88788373  0.15548740     0.37100
C2563       C  0.48873938  0.87945312  0.19099450     0.06700
F2564       F  0.51328441  0.86535587  0.25233157    -0.19200
H2565       H  0.55044479  0.86696503  0.24223622     0.16500
F2566       F  0.54927339  0.89538301  0.12366071    -0.22900
H2567       H  0.51201289  0.89262526  0.13276702     0.18300
C2568       C  0.47772413  0.89573975  0.17928255     0.26300
C2569       C  0.45731716  0.89527618  0.18036284    -0.11400
C2570       C  0.44731806  0.87871188  0.19357830    -0.25400
C2571       C  0.45831539  0.86242922  0.20550078     0.37200
C2572       C  0.47872220  0.86281761  0.20395452    -0.27100
F2573       F  0.48665584  0.91235974  0.16765063    -0.19200
H2574       H  0.44932315  0.90807695  0.17127266     0.16500
F2575       F  0.44941366  0.84591202  0.21786430    -0.22900
H2576       H  0.48670228  0.84989635  0.21239107     0.18300
C2577       C  0.63182859  0.85957529  0.97717395    -0.26900
C2578       C  0.63178403  0.87668949  0.95535483     0.06700
C2579       C  0.62932477  0.89472279  0.97391730     0.26300
C2580       C  0.62674141  0.89546726  0.01383456    -0.11400
C2581       C  0.62678316  0.87827911  0.03573460    -0.25400
C2582       C  0.62943260  0.86026501  0.01685564     0.37100
C2583       C  0.63287015  0.87524056  0.91307012     0.06700
F2584       F  0.62890953  0.91151061  0.95335248    -0.19200
H2585       H  0.62499340  0.90951179  0.02768444     0.16500
F2586       F  0.62950795  0.84319475  0.03658374    -0.22900
H2587       H  0.63365429  0.84554254  0.96327903     0.18300
C2588       C  0.64746380  0.88481205  0.89204028     0.26300
C2589       C  0.64799694  0.88311119  0.85196871    -0.11400
C2590       C  0.63396676  0.87191696  0.83222837    -0.25400
C2591       C  0.61959111  0.86208350  0.85368593     0.37200
C2592       C  0.61917551  0.86372389  0.89360654    -0.27100
F2593       F  0.66131289  0.89553536  0.91025795    -0.19200
H2594       H  0.65927927  0.89083374  0.83632323     0.16500
F2595       F  0.60580807  0.85094870  0.83628149    -0.22900
H2596       H  0.60787509  0.85614512  0.90949317     0.18300
C2597       C  0.61799476  0.88335831  0.47355823    -0.26900
C2598       C  0.63305198  0.87349387  0.45449646     0.06700
C2599       C  0.64740112  0.86388453  0.47613082     0.26300
C2600       C  0.64659989  0.86416626  0.51624885    -0.11400
C2601       C  0.63162380  0.87420070  0.53546940    -0.25400
C2602       C  0.61728397  0.88382588  0.51367742     0.37100
C2603       C  0.63359705  0.87331027  0.41206522     0.06700
F2604       F  0.66191108  0.85389302  0.45844835    -0.19200
H2605       H  0.65782557  0.85658842  0.53235996     0.16500
F2606       F  0.60232642  0.89326402  0.53104890    -0.22900
H2607       H  0.60678847  0.89083496  0.45721005     0.18300
C2608       C  0.61765428  0.86621624  0.39102347     0.26300
C2609       C  0.61783224  0.86686270  0.35099028    -0.11400
C2610       C  0.63382832  0.87472317  0.33096055    -0.25400
C2611       C  0.64991344  0.88169198  0.35219433     0.37200
C2612       C  0.64977443  0.88083966  0.39239865    -0.27100
F2613       F  0.60194469  0.85852701  0.40923241    -0.19200
H2614       H  0.60520526  0.86133412  0.33567133     0.16500
F2615       F  0.66566134  0.88949609  0.33434788    -0.22900
H2616       H  0.66216460  0.88648182  0.40832916     0.18300
C2617       C  0.61583167  0.02509258  0.23038634    -0.26900
C2618       C  0.62347245  0.01036572  0.25373563     0.06700
C2619       C  0.63006798  0.01508965  0.29092098     0.26300
C2620       C  0.62946808  0.03443312  0.30396512    -0.11400
C2621       C  0.62212024  0.04930713  0.28023948    -0.25400
C2622       C  0.61508429  0.04430468  0.24331198     0.37100
C2623       C  0.62497887  0.99030491  0.23831999     0.06700
F2624       F  0.63684131  0.00096164  0.31471935    -0.19200
H2625       H  0.63475001  0.03776799  0.33256501     0.16500
F2626       F  0.60801220  0.05802754  0.21890539    -0.22900
H2627       H  0.61080053  0.02175505  0.20159775     0.18300
C2628       C  0.60840606  0.98053140  0.22429871     0.26300
C2629       C  0.61004987  0.96175373  0.20897021    -0.11400
C2630       C  0.62821889  0.95237552  0.20744434    -0.25400
C2631       C  0.64489576  0.96243793  0.22041991     0.37200
C2632       C  0.64322495  0.98119948  0.23579628    -0.27100
F2633       F  0.59053873  0.98891865  0.22659551    -0.19200
H2634       H  0.59697541  0.95425311  0.19961241     0.16500
F2635       F  0.66282990  0.95419166  0.21802342    -0.22900
H2636       H  0.65622515  0.98872153  0.24550776     0.18300
C2637       C  0.72615447  0.87209864  0.10061108    -0.26900
C2638       C  0.74027197  0.88214411  0.12188006     0.06700
C2639       C  0.73491204  0.89114191  0.15660439     0.26300
C2640       C  0.71574095  0.88976708  0.17005226    -0.11400
C2641       C  0.70161755  0.87930430  0.14924768    -0.25400
C2642       C  0.70706005  0.87057289  0.11404060     0.37100
C2643       C  0.76075572  0.88203654  0.10875574     0.06700
F2644       F  0.74821324  0.90135007  0.17736751    -0.19200
H2645       H  0.71198676  0.89680965  0.19690029     0.16500
F2646       F  0.69398157  0.86062142  0.09223983    -0.22900
H2647       H  0.73005691  0.86501197  0.07385988     0.18300
C2648       C  0.77534760  0.87432551  0.13254346     0.26300
C2649       C  0.79446797  0.87303218  0.11946241    -0.11400
C2650       C  0.79955360  0.87941952  0.08240275    -0.25400
C2651       C  0.78495318  0.88740137  0.05861954     0.37200
C2652       C  0.76567431  0.88849802  0.07169107    -0.27100
F2653       F  0.77098363  0.86739411  0.16803656    -0.19200
H2654       H  0.80535939  0.86696747  0.13863350     0.16500
F2655       F  0.78917336  0.89382650  0.02268597    -0.22900
H2656       H  0.75452576  0.89439072  0.05286701     0.18300
loop_ 
_geom_bond_atom_site_label_1 
_geom_bond_atom_site_label_2 
_geom_bond_distance 
_geom_bond_site_symmetry_2 
_ccdc_geom_bond_type 
Zn1           O5   1.924       .  S
Zn1           O6   1.983       .  S
Zn1          O10   1.961       .  S
Zn1          O17   1.988       .  S
Zn2           O5   1.961       .  S
Zn2           O7   2.006       .  S
Zn2           O9   2.048       .  S
Zn2          O13   2.037       .  S
Zn3           O5   1.964       .  S
Zn3           O8   2.059       .  S
Zn3          O11   2.046       .  S
Zn3          O14   2.057       .  S
Zn4           O5   1.941       .  S
Zn4          O12   2.015       .  S
Zn4          O15   1.995       .  S
Zn4          O16   2.025       .  S
O6           C18   1.268       .  A
O7           C19   1.273       .  A
O8           C20   1.280       .  A
O9           C18   1.276       .  A
O10          C20   1.268       .  A
O11          C19   1.279       .  A
O12          C21   1.274       .  A
O13          C22   1.277       .  A
O14          C21   1.278       .  A
O15          C22   1.274       .  A
O16          C23   1.274       .  A
O17          C23   1.269       .  A
C18        C2641   1.486       .  S
C19        C2630   1.481       .  S
C20        C2581   1.480       .  S
C21        C2561   1.493       .  S
C22        C2610   1.485       .  S
C23        C2550   1.481       .  S
Zn24         O28   1.967       .  S
Zn24         O29   2.047       .  S
Zn24         O33   2.035       .  S
Zn24         O40   2.034       .  S
Zn25         O28   1.945       .  S
Zn25         O30   2.017       .  S
Zn25         O32   1.984       .  S
Zn25         O36   2.027       .  S
Zn26         O28   1.943       .  S
Zn26         O31   2.018       .  S
Zn26         O34   2.016       .  S
Zn26         O37   2.018       .  S
Zn27         O28   1.944       .  S
Zn27         O35   2.004       .  S
Zn27         O38   2.004       .  S
Zn27         O39   1.997       .  S
O29          C41   1.278       .  A
O30          C42   1.275       .  A
O31          C43   1.274       .  A
O32          C41   1.270       .  A
O33          C43   1.275       .  A
O34          C42   1.275       .  A
O35          C44   1.273       .  A
O36          C45   1.274       .  A
O37          C44   1.274       .  A
O38          C45   1.271       .  A
O39          C46   1.273       .  A
O40          C46   1.278       .  A
C41        C2501   1.487       .  S
C42        C2590   1.484       .  S
C43        C2481   1.491       .  S
C44        C2461   1.478       .  S
C45        C2521   1.479       .  S
C46        C2601   1.479       .  S
Zn47         O51   1.955       .  S
Zn47         O52   2.033       .  S
Zn47         O56   2.044       .  S
Zn47         O63   2.024       .  S
Zn48         O51   1.921       .  S
Zn48         O53   1.994       .  S
Zn48         O55   1.985       .  S
Zn48         O59   1.994       .  S
Zn49         O51   1.941       .  S
Zn49         O54   1.989       .  S
Zn49         O57   2.025       .  S
Zn49         O60   2.011   1_554  S
Zn50         O51   1.933       .  S
Zn50         O58   1.996   1_554  S
Zn50         O61   2.015       .  S
Zn50         O62   1.992       .  S
O52          C64   1.277       .  A
O53          C65   1.272       .  A
O54          C66   1.270       .  A
O55          C64   1.270       .  A
O56          C66   1.278       .  A
O57          C65   1.274       .  A
O58          C67   1.272       .  A
O59          C68   1.271       .  A
O60          C67   1.275       .  A
O61          C68   1.273       .  A
O62          C69   1.272       .  A
O63          C69   1.275       .  A
C64        C2430   1.474       .  S
C65        C2650   1.482       .  S
C66        C2441   1.486       .  S
C67        C2401   1.480       .  S
C68        C2361   1.475       .  S
C69        C2381   1.474       .  S
Zn70         O74   1.958       .  S
Zn70         O75   2.062       .  S
Zn70         O79   2.033       .  S
Zn70         O86   2.008       .  S
Zn71         O74   1.929       .  S
Zn71         O76   2.012       .  S
Zn71         O78   1.976       .  S
Zn71         O82   1.985       .  S
Zn72         O74   1.936       .  S
Zn72         O77   2.007       .  S
Zn72         O80   2.013       .  S
Zn72         O83   2.017       .  S
Zn73         O74   1.962       .  S
Zn73         O81   2.025       .  S
Zn73         O84   2.027       .  S
Zn73         O85   2.031       .  S
O75          C87   1.278       .  A
O76          C88   1.272       .  A
O77          C89   1.274       .  A
O78          C87   1.269       .  A
O79          C89   1.278       .  A
O80          C88   1.273       .  A
O81          C90   1.274       .  A
O82          C91   1.272       .  A
O83          C90   1.274       .  A
O84          C91   1.275       .  A
O85          C92   1.276       .  A
O86          C92   1.274       .  A
C87        C2341   1.488       .  S
C88        C2321   1.484       .  S
C89        C2410   1.482       .  S
C90        C2301   1.489       .  S
C91        C2421   1.475       .  S
C92        C2530   1.486       .  S
Zn93         O97   1.960       .  S
Zn93         O98   2.033       .  S
Zn93        O102   2.013       .  S
Zn93        O109   2.032       .  S
Zn94         O97   1.949       .  S
Zn94         O99   2.030       .  S
Zn94        O101   2.000       .  S
Zn94        O105   2.031       .  S
Zn95         O97   1.948       .  S
Zn95        O100   2.014       .  S
Zn95        O103   2.011       .  S
Zn95        O106   2.025       .  S
Zn96         O97   1.939       .  S
Zn96        O104   2.002       .  S
Zn96        O107   1.996       .  S
Zn96        O108   1.996       .  S
O98         C110   1.275       .  A
O99         C111   1.277       .  A
O100        C112   1.274       .  A
O101        C110   1.272       .  A
O102        C112   1.274       .  A
O103        C111   1.274       .  A
O104        C113   1.273       .  A
O105        C114   1.276       .  A
O106        C113   1.274       .  A
O107        C114   1.270       .  A
O108        C115   1.272       .  A
O109        C115   1.277       .  A
C110       C2350   1.480       .  S
C111       C2241   1.488       .  S
C112       C2201   1.484       .  S
C113       C2221   1.483       .  S
C114       C2281   1.477       .  S
C115       C2261   1.482       .  S
Zn116       O120   1.941       .  S
Zn116       O121   1.988       .  S
Zn116       O125   2.009       .  S
Zn116       O132   1.994       .  S
Zn117       O120   1.970       .  S
Zn117       O122   2.033       .  S
Zn117       O124   2.050       .  S
Zn117       O128   2.033       .  S
Zn118       O120   1.955       .  S
Zn118       O123   2.025       .  S
Zn118       O126   2.024       .  S
Zn118       O129   2.022   1_556  S
Zn119       O120   1.958       .  S
Zn119       O127   2.006   1_556  S
Zn119       O130   1.998       .  S
Zn119       O131   2.022       .  S
O121        C133   1.272       .  A
O122        C134   1.276       .  A
O123        C135   1.274       .  A
O124        C133   1.278       .  A
O125        C135   1.272       .  A
O126        C134   1.275       .  A
O127        C136   1.274       .  A
O128        C137   1.276       .  A
O129        C136   1.275       .  A
O130        C137   1.271       .  A
O131        C138   1.273       .  A
O132        C138   1.270       .  A
C133       C2250   1.480       .  S
C134       C2150   1.486       .  S
C135       C2161   1.479       .  S
C136       C2270   1.483       .  S
C137       C2450   1.481       .  S
C138       C2181   1.477       .  S
Zn139       O143   1.929       .  S
Zn139       O144   2.016       .  S
Zn139       O148   1.982       .  S
Zn139       O155   2.009       .  S
Zn140       O143   1.941       .  S
Zn140       O145   1.986       .  S
Zn140       O147   2.020       .  S
Zn140       O151   2.004       .  S
Zn141       O143   1.956       .  S
Zn141       O146   2.057       .  S
Zn141       O149   2.031       .  S
Zn141       O152   2.016       .  S
Zn142       O143   1.957       .  S
Zn142       O150   2.032       .  S
Zn142       O153   2.032       .  S
Zn142       O154   2.034       .  S
O144        C156   1.273       .  A
O145        C157   1.271       .  A
O146        C158   1.278       .  A
O147        C156   1.273       .  A
O148        C158   1.269       .  A
O149        C157   1.278       .  A
O150        C159   1.276       .  A
O151        C160   1.273       .  A
O152        C159   1.274       .  A
O153        C160   1.276       .  A
O154        C161   1.277       .  A
O155        C161   1.275       .  A
C156       C2061   1.481       .  S
C157       C2110   1.481       .  S
C158       C2621   1.487       .  S
C159       C2290   1.489       .  S
C160       C2090   1.485       .  S
C161       C2130   1.482       .  S
Zn162       O166   1.952       .  S
Zn162       O167   2.035       .  S
Zn162       O171   1.991       .  S
Zn162       O178   2.048       .  S
Zn163       O166   1.932       .  S
Zn163       O168   2.005       .  S
Zn163       O170   2.004       .  S
Zn163       O174   2.019       .  S
Zn164       O166   1.968       .  S
Zn164       O169   2.046       .  S
Zn164       O172   2.039       .  S
Zn164       O175   2.040       .  S
Zn165       O166   1.923       .  S
Zn165       O173   1.973       .  S
Zn165       O176   2.003       .  S
Zn165       O177   1.989       .  S
O167        C179   1.277       .  A
O168        C180   1.274       .  A
O169        C181   1.278       .  A
O170        C179   1.273       .  A
O171        C181   1.272       .  A
O172        C180   1.276       .  A
O173        C182   1.270       .  A
O174        C183   1.273       .  A
O175        C182   1.278       .  A
O176        C183   1.273       .  A
O177        C184   1.269       .  A
O178        C184   1.277       .  A
C179       C2121   1.488       .  S
C180       C2050   1.488       .  S
C181       C2190   1.479       .  S
C182       C2101   1.474       .  S
C183       C2021   1.484       .  S
C184       C2510   1.473       .  S
Zn185       O189   1.933       .  S
Zn185       O190   2.015       .  S
Zn185       O194   1.997       .  S
Zn185       O201   1.983       .  S
Zn186       O189   1.941       .  S
Zn186       O191   1.996       .  S
Zn186       O193   2.011       .  S
Zn186       O197   1.991   1_554  S
Zn187       O189   1.960       .  S
Zn187       O192   2.043       .  S
Zn187       O195   2.016       .  S
Zn187       O198   2.026       .  S
Zn188       O189   1.959       .  S
Zn188       O196   2.013       .  S
Zn188       O199   2.031   1_554  S
Zn188       O200   2.032       .  S
O190        C202   1.272       .  A
O191        C203   1.272       .  A
O192        C204   1.277       .  A
O193        C202   1.272       .  A
O194        C204   1.272       .  A
O195        C203   1.275       .  A
O196        C205   1.274       .  A
O197        C206   1.271       .  A
O198        C205   1.275       .  A
O199        C206   1.276       .  A
O200        C207   1.276       .  A
O201        C207   1.270       .  A
C202       C1921   1.485       .  S
C203       C2390   1.479       .  S
C204       C1970   1.479       .  S
C205       C1990   1.481       .  S
C206       C1941   1.478       .  S
C207       C2010   1.478       .  S
Zn208       O212   1.936       .  S
Zn208       O213   2.015       .  S
Zn208       O217   1.997       .  S
Zn208       O224   2.031       .  S
Zn209       O212   1.950       .  S
Zn209       O214   1.992       .  S
Zn209       O216   2.024       .  S
Zn209       O220   2.048       .  S
Zn210       O212   1.967       .  S
Zn210       O215   2.031       .  S
Zn210       O218   2.047       .  S
Zn210       O221   2.048       .  S
Zn211       O212   1.923       .  S
Zn211       O219   1.979       .  S
Zn211       O222   1.992       .  S
Zn211       O223   2.005       .  S
O213        C225   1.275       .  A
O214        C226   1.271       .  A
O215        C227   1.275       .  A
O216        C225   1.276       .  A
O217        C227   1.272       .  A
O218        C226   1.278       .  A
O219        C228   1.271       .  A
O220        C229   1.277       .  A
O221        C228   1.278       .  A
O222        C229   1.271       .  A
O223        C230   1.273       .  A
O224        C230   1.275       .  A
C225       C1961   1.484       .  S
C226       C1890   1.482       .  S
C227       C2330   1.482       .  S
C228       C1950   1.484       .  S
C229       C1901   1.485       .  S
C230       C1861   1.484       .  S
Zn231       O235   1.966       .  S
Zn231       O236   2.045       .  S
Zn231       O240   2.047       .  S
Zn231       O247   2.045       .  S
Zn232       O235   1.954       .  S
Zn232       O237   2.016       .  S
Zn232       O239   1.993       .  S
Zn232       O243   2.016       .  S
Zn233       O235   1.935       .  S
Zn233       O238   1.991       .  S
Zn233       O241   1.985       .  S
Zn233       O244   2.012       .  S
Zn234       O235   1.944       .  S
Zn234       O242   2.026       .  S
Zn234       O245   2.015       .  S
Zn234       O246   2.017       .  S
O236        C248   1.277       .  A
O237        C249   1.273       .  A
O238        C250   1.272       .  A
O239        C248   1.272       .  A
O240        C250   1.277       .  A
O241        C249   1.270       .  A
O242        C251   1.275       .  A
O243        C252   1.274       .  A
O244        C251   1.272       .  A
O245        C252   1.275       .  A
O246        C253   1.275       .  A
O247        C253   1.279       .  A
C248       C1850   1.486       .  S
C249       C2001   1.480       .  S
C250       C1801   1.481       .  S
C251       C1781   1.487       .  S
C252       C1821   1.482       .  S
C253       C2570   1.490       .  S
Zn254       O258   1.954       .  S
Zn254       O259   2.039       .  S
Zn254       O263   2.028       .  S
Zn254       O270   2.030       .  S
Zn255       O258   1.928       .  S
Zn255       O260   1.993       .  S
Zn255       O262   2.004       .  S
Zn255       O266   1.977       .  S
Zn256       O258   1.950       .  S
Zn256       O261   2.018       .  S
Zn256       O264   2.059       .  S
Zn256       O267   1.998       .  S
Zn257       O258   1.968       .  S
Zn257       O265   2.066       .  S
Zn257       O268   2.049       .  S
Zn257       O269   2.031       .  S
O259        C271   1.275       .  A
O260        C272   1.269       .  A
O261        C273   1.277       .  A
O262        C271   1.272       .  A
O263        C273   1.278       .  A
O264        C272   1.277       .  A
O265        C274   1.279       .  A
O266        C275   1.271       .  A
O267        C274   1.272       .  A
O268        C275   1.280       .  A
O269        C276   1.275       .  A
O270        C276   1.276       .  A
C271       C1741   1.481       .  S
C272       C1910   1.492       .  S
C273       C1810   1.487       .  S
C274       C1770   1.489       .  S
C275       C1830   1.481       .  S
C276       C2490   1.485       .  S
Zn277       O281   1.940       .  S
Zn277       O282   1.992       .  S
Zn277       O286   2.006       .  S
Zn277       O293   1.989       .  S
Zn278       O281   1.953       .  S
Zn278       O283   2.028       .  S
Zn278       O285   2.041       .  S
Zn278       O289   2.016       .  S
Zn279       O281   1.950       .  S
Zn279       O284   2.043       .  S
Zn279       O287   2.008       .  S
Zn279       O290   2.012       .  S
Zn280       O281   1.970       .  S
Zn280       O288   2.013       .  S
Zn280       O291   2.053       .  S
Zn280       O292   2.043       .  S
O282        C294   1.271       .  A
O283        C295   1.276       .  A
O284        C296   1.275       .  A
O285        C294   1.277       .  A
O286        C296   1.272       .  A
O287        C295   1.275       .  A
O288        C297   1.274       .  A
O289        C298   1.274       .  A
O290        C297   1.274       .  A
O291        C298   1.277       .  A
O292        C299   1.278       .  A
O293        C299   1.271       .  A
C294       C1841   1.477       .  S
C295       C1690   1.485       .  S
C296       C2070   1.485       .  S
C297       C1661   1.478       .  S
C298       C1721   1.496       .  S
C299       C1701   1.486       .  S
Zn300       O304   1.938       .  S
Zn300       O305   2.001       .  S
Zn300       O309   1.996       .  S
Zn300       O316   2.010       .  S
Zn301       O304   1.961       .  S
Zn301       O306   2.054       .  S
Zn301       O308   2.038       .  S
Zn301       O312   2.012       .  S
Zn302       O304   1.952       .  S
Zn302       O307   2.033       .  S
Zn302       O310   2.004       .  S
Zn302       O313   2.030       .  S
Zn303       O304   1.946       .  S
Zn303       O311   2.001       .  S
Zn303       O314   2.028       .  S
Zn303       O315   2.027       .  S
O305        C317   1.273       .  A
O306        C318   1.277       .  A
O307        C319   1.276       .  A
O308        C317   1.278       .  A
O309        C319   1.271       .  A
O310        C318   1.274       .  A
O311        C320   1.274       .  A
O312        C321   1.274       .  A
O313        C320   1.276       .  A
O314        C321   1.275       .  A
O315        C322   1.275       .  A
O316        C322   1.272       .  A
C317       C1710   1.479       .  S
C318       C1761   1.493       .  S
C319       C1650   1.484       .  S
C320       C1681   1.483       .  S
C321       C2030   1.486       .  S
C322       C1630   1.484       .  S
Zn323       O327   1.930       .  S
Zn323       O328   1.999       .  S
Zn323       O332   2.003       .  S
Zn323       O339   1.996       .  S
Zn324       O327   1.959       .  S
Zn324       O329   2.046       .  S
Zn324       O331   2.027       .  S
Zn324       O335   2.044       .  S
Zn325       O327   1.930       .  S
Zn325       O330   2.004       .  S
Zn325       O333   1.985       .  S
Zn325       O336   1.989       .  S
Zn326       O327   1.948       .  S
Zn326       O334   2.055       .  S
Zn326       O337   2.022       .  S
Zn326       O338   2.029       .  S
O328        C340   1.272       .  A
O329        C341   1.279       .  A
O330        C342   1.271       .  A
O331        C340   1.275       .  A
O332        C342   1.272       .  A
O333        C341   1.271       .  A
O334        C343   1.279       .  A
O335        C344   1.278       .  A
O336        C343   1.271       .  A
O337        C344   1.275       .  A
O338        C345   1.276       .  A
O339        C345   1.273       .  A
C340       C1570   1.485       .  S
C341       C1581   1.485       .  S
C342       C2210   1.475       .  S
C343       C1881   1.485       .  S
C344       C1730   1.490       .  S
C345       C1601   1.484       .  S
Zn346       O350   1.926       .  S
Zn346       O351   1.986       .  S
Zn346       O355   1.996       .  S
Zn346       O362   2.009       .  S
Zn347       O350   1.964       .  S
Zn347       O352   2.041       .  S
Zn347       O354   2.045       .  S
Zn347       O358   2.046       .  S
Zn348       O350   1.955       .  S
Zn348       O353   2.042       .  S
Zn348       O356   1.993       .  S
Zn348       O359   2.017   1_556  S
Zn349       O350   1.937       .  S
Zn349       O357   2.001   1_556  S
Zn349       O360   2.012       .  S
Zn349       O361   2.014       .  S
O351        C363   1.272       .  A
O352        C364   1.277       .  A
O353        C365   1.275       .  A
O354        C363   1.278       .  A
O355        C365   1.271       .  A
O356        C364   1.273       .  A
O357        C366   1.273       .  A
O358        C367   1.276       .  A
O359        C366   1.275       .  A
O360        C367   1.274       .  A
O361        C368   1.273       .  A
O362        C368   1.274       .  A
C363       C1590   1.482       .  S
C364       C1981   1.486       .  S
C365       C1641   1.479       .  S
C366       C1610   1.481       .  S
C367       C2141   1.489       .  S
C368       C1550   1.484       .  S
Zn369       O373   1.947       .  S
Zn369       O374   2.024       .  S
Zn369       O378   2.034       .  S
Zn369       O385   2.051       .  S
Zn370       O373   1.948       .  S
Zn370       O375   2.022       .  S
Zn370       O377   2.043       .  S
Zn370       O381   2.045       .  S
Zn371       O373   1.927       .  S
Zn371       O376   1.990       .  S
Zn371       O379   1.997       .  S
Zn371       O382   1.985       .  S
Zn372       O373   1.926       .  S
Zn372       O380   2.016       .  S
Zn372       O383   1.991       .  S
Zn372       O384   1.995       .  S
O374        C386   1.275       .  A
O375        C387   1.274       .  A
O376        C388   1.273       .  A
O377        C386   1.279       .  A
O378        C388   1.278       .  A
O379        C387   1.271       .  A
O380        C389   1.273       .  A
O381        C390   1.279       .  A
O382        C389   1.269       .  A
O383        C390   1.273       .  A
O384        C391   1.271       .  A
O385        C391   1.279       .  A
C386       C1501   1.494       .  S
C387       C2230   1.478       .  S
C388       C1481   1.483       .  S
C389       C1441   1.467       .  S
C390       C1470   1.483       .  S
C391       C1521   1.488       .  S
Zn392       O396   1.931       .  S
Zn392       O397   1.988       .  S
Zn392       O401   1.994       .  S
Zn392       O408   1.973   1_556  S
Zn393       O396   1.955       .  S
Zn393       O398   2.029       .  S
Zn393       O400   2.033       .  S
Zn393       O404   1.992       .  S
Zn394       O396   1.941       .  S
Zn394       O399   2.016       .  S
Zn394       O402   2.002       .  S
Zn394       O405   1.988       .  S
Zn395       O396   1.977       .  S
Zn395       O403   2.041       .  S
Zn395       O406   2.035       .  S
Zn395       O407   2.054   1_556  S
O397        C409   1.269       .  A
O398        C410   1.275       .  A
O399        C411   1.272       .  A
O400        C409   1.276       .  A
O401        C411   1.271       .  A
O402        C410   1.273       .  A
O403        C412   1.276       .  A
O404        C413   1.272       .  A
O405        C412   1.271       .  A
O406        C413   1.277       .  A
O407        C414   1.278       .  A
O408        C414   1.270       .  A
C409       C1421   1.483       .  S
C410       C1461   1.485       .  S
C411       C1390   1.476       .  S
C412       C2170   1.484       .  S
C413       C1401   1.484       .  S
C414       C1490   1.479       .  S
Zn415       O419   1.926       .  S
Zn415       O420   1.996       .  S
Zn415       O424   1.982       .  S
Zn415       O431   1.989       .  S
Zn416       O419   1.948       .  S
Zn416       O421   2.001       .  S
Zn416       O423   2.010       .  S
Zn416       O427   2.002   1_554  S
Zn417       O419   1.963       .  S
Zn417       O422   2.043       .  S
Zn417       O425   2.028       .  S
Zn417       O428   2.031       .  S
Zn418       O419   1.949       .  S
Zn418       O426   1.994       .  S
Zn418       O429   2.021   1_554  S
Zn418       O430   2.043       .  S
O420        C432   1.271       .  A
O421        C433   1.273       .  A
O422        C434   1.276       .  A
O423        C432   1.272       .  A
O424        C434   1.271       .  A
O425        C433   1.276       .  A
O426        C435   1.272       .  A
O427        C436   1.273       .  A
O428        C435   1.275       .  A
O429        C436   1.275       .  A
O430        C437   1.277       .  A
O431        C437   1.270       .  A
C432       C2370   1.475       .  S
C433       C1301   1.482       .  S
C434       C1341   1.480       .  S
C435       C1430   1.475       .  S
C436       C1321   1.479       .  S
C437       C1361   1.486       .  S
Zn438       O442   1.942       .  S
Zn438       O443   2.019       .  S
Zn438       O447   1.989       .  S
Zn438       O454   2.018       .  S
Zn439       O442   1.946       .  S
Zn439       O444   2.001       .  S
Zn439       O446   2.028       .  S
Zn439       O450   2.002       .  S
Zn440       O442   1.968       .  S
Zn440       O445   2.039       .  S
Zn440       O448   2.046       .  S
Zn440       O451   2.015       .  S
Zn441       O442   1.962       .  S
Zn441       O449   2.031       .  S
Zn441       O452   2.031       .  S
Zn441       O453   2.044       .  S
O443        C455   1.274       .  A
O444        C456   1.271       .  A
O445        C457   1.278       .  A
O446        C455   1.275       .  A
O447        C457   1.272       .  A
O448        C456   1.277       .  A
O449        C458   1.275       .  A
O450        C459   1.275       .  A
O451        C458   1.274       .  A
O452        C459   1.277       .  A
O453        C460   1.276       .  A
O454        C460   1.274       .  A
C455       C2310   1.485       .  S
C456       C1281   1.489       .  S
C457       C1350   1.485       .  S
C458       C1530   1.481       .  S
C459       C1330   1.482       .  S
C460       C1261   1.490       .  S
Zn461       O465   1.935       .  S
Zn461       O466   1.982       .  S
Zn461       O470   1.994       .  S
Zn461       O477   2.007       .  S
Zn462       O465   1.963       .  S
Zn462       O467   2.035       .  S
Zn462       O469   2.043       .  S
Zn462       O473   2.030       .  S
Zn463       O465   1.954       .  S
Zn463       O468   2.040       .  S
Zn463       O471   2.020       .  S
Zn463       O474   2.038       .  S
Zn464       O465   1.933       .  S
Zn464       O472   1.983       .  S
Zn464       O475   1.989       .  S
Zn464       O476   2.006       .  S
O466        C478   1.271       .  A
O467        C479   1.276       .  A
O468        C480   1.277       .  A
O469        C478   1.277       .  A
O470        C480   1.272       .  A
O471        C479   1.275       .  A
O472        C481   1.271       .  A
O473        C482   1.276       .  A
O474        C481   1.277       .  A
O475        C482   1.271       .  A
O476        C483   1.271       .  A
O477        C483   1.271       .  A
C478       C1201   1.476       .  S
C479       C1241   1.491       .  S
C480       C1370   1.482       .  S
C481       C1221   1.482       .  S
C482       C1181   1.482       .  S
C483       C2541   1.476       .  S
Zn484       O488   1.938       .  S
Zn484       O489   2.005       .  S
Zn484       O493   2.015       .  S
Zn484       O500   1.992       .  S
Zn485       O488   1.944       .  S
Zn485       O490   2.021       .  S
Zn485       O492   2.026       .  S
Zn485       O496   1.998       .  S
Zn486       O488   1.935       .  S
Zn486       O491   2.001       .  S
Zn486       O494   1.994       .  S
Zn486       O497   1.997       .  S
Zn487       O488   1.963       .  S
Zn487       O495   2.031       .  S
Zn487       O498   2.053       .  S
Zn487       O499   2.040       .  S
O489        C501   1.273       .  A
O490        C502   1.275       .  A
O491        C503   1.271       .  A
O492        C501   1.275       .  A
O493        C503   1.273       .  A
O494        C502   1.272       .  A
O495        C504   1.275       .  A
O496        C505   1.272       .  A
O497        C504   1.272       .  A
O498        C505   1.278       .  A
O499        C506   1.278       .  A
O500        C506   1.272       .  A
C501       C1170   1.482       .  S
C502       C1230   1.482       .  S
C503       C1141   1.474       .  S
C504       C2470   1.484       .  S
C505       C1290   1.483       .  S
C506       C1210   1.483       .  S
Zn507       O511   1.950       .  S
Zn507       O512   2.023       .  S
Zn507       O516   2.016       .  S
Zn507       O523   1.999       .  S
Zn508       O511   1.972       .  S
Zn508       O513   2.056       .  S
Zn508       O515   2.040       .  S
Zn508       O519   2.048       .  S
Zn509       O511   1.935       .  S
Zn509       O514   2.018       .  S
Zn509       O517   1.994       .  S
Zn509       O520   2.013       .  S
Zn510       O511   1.962       .  S
Zn510       O518   2.060       .  S
Zn510       O521   2.001       .  S
Zn510       O522   2.030       .  S
O512        C524   1.274       .  A
O513        C525   1.279       .  A
O514        C526   1.274       .  A
O515        C524   1.277       .  A
O516        C526   1.274       .  A
O517        C525   1.273       .  A
O518        C527   1.278       .  A
O519        C528   1.278       .  A
O520        C527   1.273       .  A
O521        C528   1.273       .  A
O522        C529   1.276       .  A
O523        C529   1.273       .  A
C524       C1081   1.492       .  S
C525       C1101   1.480       .  S
C526       C2081   1.484       .  S
C527       C1510   1.492       .  S
C528       C1250   1.486       .  S
C529       C1121   1.484       .  S
Zn530       O534   1.940       .  S
Zn530       O535   2.012       .  S
Zn530       O539   2.021       .  S
Zn530       O546   2.007       .  S
Zn531       O534   1.969       .  S
Zn531       O536   2.046       .  S
Zn531       O538   2.035       .  S
Zn531       O542   2.034       .  S
Zn532       O534   1.932       .  S
Zn532       O537   2.025       .  S
Zn532       O540   1.989       .  S
Zn532       O543   1.988       .  S
Zn533       O534   1.965       .  S
Zn533       O541   2.044       .  S
Zn533       O544   2.004       .  S
Zn533       O545   2.031       .  S
O535        C547   1.274       .  A
O536        C548   1.277       .  A
O537        C549   1.274       .  A
O538        C547   1.276       .  A
O539        C549   1.274       .  A
O540        C548   1.272       .  A
O541        C550   1.276       .  A
O542        C551   1.277       .  A
O543        C550   1.271       .  A
O544        C551   1.273       .  A
O545        C552   1.276       .  A
O546        C552   1.274       .  A
C547       C1070   1.488       .  S
C548       C1130   1.487       .  S
C549       C2041   1.486       .  S
C550       C1410   1.480       .  S
C551       C1161   1.483       .  S
C552       C1110   1.487       .  S
Zn553       O557   1.935       .  S
Zn553       O558   2.008       .  S
Zn553       O562   1.988       .  S
Zn553       O569   1.980   1_554  S
Zn554       O557   1.949       .  S
Zn554       O559   2.007       .  S
Zn554       O561   2.019       .  S
Zn554       O565   2.016       .  S
Zn555       O557   1.957       .  S
Zn555       O560   2.055       .  S
Zn555       O563   2.019       .  S
Zn555       O566   1.993       .  S
Zn556       O557   1.971       .  S
Zn556       O564   2.057       .  S
Zn556       O567   2.035       .  S
Zn556       O568   2.055   1_554  S
O558        C570   1.272       .  A
O559        C571   1.275       .  A
O560        C572   1.276       .  A
O561        C570   1.274       .  A
O562        C572   1.270       .  A
O563        C571   1.276       .  A
O564        C573   1.278       .  A
O565        C574   1.273       .  A
O566        C573   1.272       .  A
O567        C574   1.276       .  A
O568        C575   1.279       .  A
O569        C575   1.271       .  A
C570       C1310   1.485       .  S
C571       C1010   1.483       .  S
C572       C1041   1.491       .  S
C573       C1030   1.487       .  S
C574       C1930   1.482       .  S
C575        C981   1.477       .  S
Zn576       O580   1.939       .  S
Zn576       O581   1.987       .  S
Zn576       O585   1.983       .  S
Zn576       O592   2.009       .  S
Zn577       O580   1.968       .  S
Zn577       O582   2.017       .  S
Zn577       O584   2.058       .  S
Zn577       O588   2.040       .  S
Zn578       O580   1.968       .  S
Zn578       O583   2.029       .  S
Zn578       O586   2.024       .  S
Zn578       O589   2.022       .  S
Zn579       O580   1.949       .  S
Zn579       O587   2.014       .  S
Zn579       O590   2.018       .  S
Zn579       O591   2.033       .  S
O581        C593   1.270       .  A
O582        C594   1.274       .  A
O583        C595   1.275       .  A
O584        C593   1.278       .  A
O585        C595   1.270       .  A
O586        C594   1.275       .  A
O587        C596   1.274       .  A
O588        C597   1.278       .  A
O589        C596   1.273       .  A
O590        C597   1.275       .  A
O591        C598   1.276       .  A
O592        C598   1.272       .  A
C593        C970   1.487       .  S
C594        C941   1.483       .  S
C595       C1001   1.478       .  S
C596       C1870   1.487       .  S
C597        C990   1.491       .  S
C598       C1270   1.489       .  S
Zn599       O603   1.936       .  S
Zn599       O604   2.017       .  S
Zn599       O608   2.013       .  S
Zn599       O615   1.997       .  S
Zn600       O603   1.922       .  S
Zn600       O605   1.981       .  S
Zn600       O607   2.007       .  S
Zn600       O611   1.982       .  S
Zn601       O603   1.948       .  S
Zn601       O606   2.005       .  S
Zn601       O609   2.020       .  S
Zn601       O612   2.024       .  S
Zn602       O603   1.945       .  S
Zn602       O610   2.005       .  S
Zn602       O613   2.030       .  S
Zn602       O614   2.031       .  S
O604        C616   1.272       .  A
O605        C617   1.271       .  A
O606        C618   1.273       .  A
O607        C616   1.272       .  A
O608        C618   1.275       .  A
O609        C617   1.274       .  A
O610        C619   1.273       .  A
O611        C620   1.270       .  A
O612        C619   1.275       .  A
O613        C620   1.275       .  A
O614        C621   1.277       .  A
O615        C621   1.274       .  A
C616       C1561   1.480       .  S
C617        C901   1.477       .  S
C618       C1450   1.480       .  S
C619        C961   1.481       .  S
C620        C930   1.477       .  S
C621        C881   1.481       .  S
Zn622       O626   1.924       .  S
Zn622       O627   1.968   1_556  S
Zn622       O631   2.008       .  S
Zn622       O638   2.001       .  S
Zn623       O626   1.969       .  S
Zn623       O628   2.031       .  S
Zn623       O630   2.045   1_556  S
Zn623       O634   2.045       .  S
Zn624       O626   1.937       .  S
Zn624       O629   2.027       .  S
Zn624       O632   2.000       .  S
Zn624       O635   2.012       .  S
Zn625       O626   1.948       .  S
Zn625       O633   2.026       .  S
Zn625       O636   1.985       .  S
Zn625       O637   2.036       .  S
O627        C639   1.268       .  A
O628        C640   1.276       .  A
O629        C641   1.275       .  A
O630        C639   1.277       .  A
O631        C641   1.273       .  A
O632        C640   1.274       .  A
O633        C642   1.276       .  A
O634        C643   1.277       .  A
O635        C642   1.274       .  A
O636        C643   1.270       .  A
O637        C644   1.276       .  A
O638        C644   1.272       .  A
C639        C910   1.482       .  S
C640       C1541   1.482       .  S
C641       C1381   1.481       .  S
C642        C890   1.487       .  S
C643        C861   1.483       .  S
C644       C1050   1.480       .  S
Zn645       O649   1.928       .  S
Zn645       O650   1.986       .  S
Zn645       O654   1.976       .  S
Zn645       O661   1.974       .  S
Zn646       O649   1.957       .  S
Zn646       O651   1.998       .  S
Zn646       O653   2.040       .  S
Zn646       O657   2.020       .  S
Zn647       O649   1.961       .  S
Zn647       O652   2.030       .  S
Zn647       O655   2.017       .  S
Zn647       O658   1.995       .  S
Zn648       O649   1.968       .  S
Zn648       O656   2.054       .  S
Zn648       O659   2.043       .  S
Zn648       O660   2.054       .  S
O650        C662   1.270       .  A
O651        C663   1.272       .  A
O652        C664   1.274       .  A
O653        C662   1.275       .  A
O654        C664   1.269       .  A
O655        C663   1.274       .  A
O656        C665   1.279       .  A
O657        C666   1.275       .  A
O658        C665   1.271       .  A
O659        C666   1.278       .  A
O660        C667   1.278       .  A
O661        C667   1.269       .  A
C662       C1670   1.486       .  S
C663        C821   1.468       .  S
C664        C921   1.481       .  S
C665        C841   1.488       .  S
C666       C1090   1.483       .  S
C667        C810   1.485       .  S
Zn668       O672   1.959       .  S
Zn668       O673   2.044       .  S
Zn668       O677   2.008       .  S
Zn668       O684   2.024       .  S
Zn669       O672   1.938       .  S
Zn669       O674   1.989       .  S
Zn669       O676   2.008       .  S
Zn669       O680   1.999       .  S
Zn670       O672   1.974       .  S
Zn670       O675   2.023       .  S
Zn670       O678   2.039       .  S
Zn670       O681   2.041       .  S
Zn671       O672   1.953       .  S
Zn671       O679   2.003       .  S
Zn671       O682   2.042       .  S
Zn671       O683   2.018       .  S
O673        C685   1.276       .  A
O674        C686   1.271       .  A
O675        C687   1.275       .  A
O676        C685   1.271       .  A
O677        C687   1.274       .  A
O678        C686   1.276       .  A
O679        C688   1.271       .  A
O680        C689   1.272       .  A
O681        C688   1.276       .  A
O682        C689   1.277       .  A
O683        C690   1.276       .  A
O684        C690   1.275       .  A
C685       C1061   1.486       .  S
C686        C801   1.472       .  S
C687       C1621   1.482       .  S
C688        C870   1.489       .  S
C689        C781   1.482       .  S
C690        C830   1.482       .  S
Zn691       O695   1.941       .  S
Zn691       O696   2.021       .  S
Zn691       O700   2.017       .  S
Zn691       O707   2.008       .  S
Zn692       O695   1.928       .  S
Zn692       O697   1.976       .  S
Zn692       O699   2.001       .  S
Zn692       O703   1.984       .  S
Zn693       O695   1.961       .  S
Zn693       O698   2.024       .  S
Zn693       O701   2.034       .  S
Zn693       O704   2.037       .  S
Zn694       O695   1.961       .  S
Zn694       O702   2.015       .  S
Zn694       O705   2.073       .  S
Zn694       O706   2.045       .  S
O696        C708   1.274       .  A
O697        C709   1.271       .  A
O698        C710   1.275       .  A
O699        C708   1.272       .  A
O700        C710   1.273       .  A
O701        C709   1.276       .  A
O702        C711   1.275       .  A
O703        C712   1.270       .  A
O704        C711   1.276       .  A
O705        C712   1.280       .  A
O706        C713   1.280       .  A
O707        C713   1.275       .  A
C708       C1190   1.481       .  S
C709        C761   1.478       .  S
C710       C1790   1.483       .  S
C711       C1021   1.491       .  S
C712        C850   1.491       .  S
C713        C741   1.490       .  S
Zn714       O718   1.943       .  S
Zn714       O719   2.008       .  S
Zn714       O723   2.007       .  S
Zn714       O730   1.997       .  S
Zn715       O718   1.915       .  S
Zn715       O720   1.977       .  S
Zn715       O722   1.995       .  S
Zn715       O726   1.986       .  S
Zn716       O718   1.969       .  S
Zn716       O721   2.038       .  S
Zn716       O724   2.065       .  S
Zn716       O727   2.066       .  S
Zn717       O718   1.951       .  S
Zn717       O725   1.992       .  S
Zn717       O728   2.056       .  S
Zn717       O729   2.016       .  S
O719        C731   1.272       .  A
O720        C732   1.271       .  A
O721        C733   1.277       .  A
O722        C731   1.271       .  A
O723        C733   1.272       .  A
O724        C732   1.280       .  A
O725        C734   1.274       .  A
O726        C735   1.270       .  A
O727        C734   1.281       .  A
O728        C735   1.276       .  A
O729        C736   1.275       .  A
O730        C736   1.274       .  A
C731       C1150   1.476       .  S
C732        C750   1.484       .  S
C733       C1750   1.489       .  S
C734        C950   1.488       .  S
C735        C790   1.488       .  S
C736        C770   1.478       .  S
C737        C738   1.401       .  A
C737        C742   1.399   1_556  A
C737        H747   1.084       .  S
C738        C743   1.486       .  S
C738        C739   1.408       .  A
C739        C740   1.400   1_556  A
C739        F744   1.358       .  S
C740        C741   1.406       .  A
C740        H745   1.084       .  S
C741        C742   1.414       .  A
C742        F746   1.357       .  S
C743        C748   1.410       .  A
C743        C752   1.400       .  A
C748        C749   1.406       .  A
C748        F753   1.357       .  S
C749        C750   1.406       .  A
C749        H754   1.085       .  S
C750        C751   1.411       .  A
C751        C752   1.393       .  A
C751        F755   1.358       .  S
C752        H756   1.085       .  S
C757        C758   1.403       .  A
C757        C762   1.398       .  A
C757        H767   1.085       .  S
C758        C763   1.470       .  S
C758        C759   1.400       .  A
C759        C760   1.392       .  A
C759        F764   1.358       .  S
C760        C761   1.409       .  A
C760        H765   1.085       .  S
C761        C762   1.408       .  A
C762        F766   1.357       .  S
C763        C768   1.401       .  A
C763        C772   1.401       .  A
C768        C769   1.393       .  A
C768        F773   1.358       .  S
C769        C770   1.407       .  A
C769        H774   1.085       .  S
C770        C771   1.410       .  A
C771        C772   1.397       .  A
C771        F775   1.357       .  S
C772        H776   1.086       .  S
C777        C778   1.400       .  A
C777        C782   1.398       .  A
C777        H787   1.085       .  S
C778        C783   1.476       .  S
C778        C779   1.404       .  A
C779        C780   1.402       .  A
C779        F784   1.357       .  S
C780        C781   1.406       .  A
C780        H785   1.084       .  S
C781        C782   1.410       .  A
C782        F786   1.358       .  S
C783        C788   1.399       .  A
C783        C792   1.405       .  A
C788        C789   1.394       .  A
C788        F793   1.358       .  S
C789        C790   1.410       .  A
C789        H794   1.084       .  S
C790        C791   1.411       .  A
C791        C792   1.406       .  A
C791        F795   1.357       .  S
C792        H796   1.084       .  S
C797        C798   1.400       .  A
C797        C802   1.395       .  A
C797        H807   1.086       .  S
C798        C803   1.473       .  S
C798        C799   1.406       .  A
C799        C800   1.399       .  A
C799        F804   1.357       .  S
C800        C801   1.403       .  A
C800        H805   1.085       .  S
C801        C802   1.407       .  A
C802        F806   1.358       .  S
C803        C808   1.405       .  A
C803        C812   1.396       .  A
C808        C809   1.401       .  A
C808        F813   1.357       .  S
C809        C810   1.406       .  A
C809        H814   1.085       .  S
C810        C811   1.415       .  A
C811        C812   1.393       .  A
C811        F815   1.358       .  S
C812        H816   1.086       .  S
C817        C818   1.406       .  A
C817        C822   1.397       .  A
C817        H827   1.085       .  S
C818        C823   1.484       .  S
C818        C819   1.408       .  A
C819        C820   1.396       .  A
C819        F824   1.357       .  S
C820        C821   1.401       .  A
C820        H825   1.085       .  S
C821        C822   1.404       .  A
C822        F826   1.358       .  S
C823        C828   1.406       .  A
C823        C832   1.406       .  A
C828        C829   1.395   1_554  A
C828        F833   1.358       .  S
C829        C830   1.405       .  A
C829        H834   1.085       .  S
C830        C831   1.409       .  A
C831        C832   1.400   1_556  A
C831        F835   1.357       .  S
C832        H836   1.085       .  S
C837        C838   1.405       .  A
C837        C842   1.400       .  A
C837        H847   1.085       .  S
C838        C843   1.496       .  S
C838        C839   1.412       .  A
C839        C840   1.400       .  A
C839        F844   1.357       .  S
C840        C841   1.403       .  A
C840        H845   1.085       .  S
C841        C842   1.413       .  A
C842        F846   1.358       .  S
C843        C848   1.414       .  A
C843        C852   1.402       .  A
C848        C849   1.406       .  A
C848        F853   1.357       .  S
C849        C850   1.405       .  A
C849        H854   1.085       .  S
C850        C851   1.414       .  A
C851        C852   1.395       .  A
C851        F855   1.358       .  S
C852        H856   1.085       .  S
C857        C858   1.399       .  A
C857        C862   1.395       .  A
C857        H867   1.083       .  S
C858        C863   1.479       .  S
C858        C859   1.407       .  A
C859        C860   1.402       .  A
C859        F864   1.357       .  S
C860        C861   1.405       .  A
C860        H865   1.083       .  S
C861        C862   1.413       .  A
C862        F866   1.358       .  S
C863        C868   1.406       .  A
C863        C872   1.399       .  A
C868        C869   1.401       .  A
C868        F873   1.358       .  S
C869        C870   1.408       .  A
C869        H874   1.084       .  S
C870        C871   1.414       .  A
C871        C872   1.396       .  A
C871        F875   1.357       .  S
C872        H876   1.085       .  S
C877        C878   1.402       .  A
C877        C882   1.393       .  A
C877        H887   1.084       .  S
C878        C883   1.482       .  S
C878        C879   1.407       .  A
C879        C880   1.401       .  A
C879        F884   1.357       .  S
C880        C881   1.406       .  A
C880        H885   1.084       .  S
C881        C882   1.409       .  A
C882        F886   1.358       .  S
C883        C888   1.406       .  A
C883        C892   1.403       .  A
C888        C889   1.400       .  A
C888        F893   1.357       .  S
C889        C890   1.408       .  A
C889        H894   1.084       .  S
C890        C891   1.411       .  A
C891        C892   1.396       .  A
C891        F895   1.357       .  S
C892        H896   1.084       .  S
C897        C898   1.399       .  A
C897        C902   1.390       .  A
C897        H907   1.086       .  S
C898        C903   1.475       .  S
C898        C899   1.407       .  A
C899        C900   1.398       .  A
C899        F904   1.358       .  S
C900        C901   1.406       .  A
C900        H905   1.086       .  S
C901        C902   1.410       .  A
C902        F906   1.357       .  S
C903        C908   1.407       .  A
C903        C912   1.397       .  A
C908        C909   1.398       .  A
C908        F913   1.357       .  S
C909        C910   1.404       .  A
C909        H914   1.085       .  S
C910        C911   1.415       .  A
C911        C912   1.391       .  A
C911        F915   1.358       .  S
C912        H916   1.086       .  S
C917        C918   1.402       .  A
C917        C922   1.400       .  A
C917        H927   1.083       .  S
C918        C923   1.472       .  S
C918        C919   1.401       .  A
C919        C920   1.392       .  A
C919        F924   1.358       .  S
C920        C921   1.408       .  A
C920        H925   1.083       .  S
C921        C922   1.410       .  A
C922        F926   1.357       .  S
C923        C928   1.405       .  A
C923        C932   1.399       .  A
C928        C929   1.400       .  A
C928        F933   1.358       .  S
C929        C930   1.407       .  A
C929        H934   1.084       .  S
C930        C931   1.409       .  A
C931        C932   1.392       .  A
C931        F935   1.358       .  S
C932        H936   1.085       .  S
C937        C938   1.401       .  A
C937        C942   1.401       .  A
C937        H947   1.084       .  S
C938        C943   1.477       .  S
C938        C939   1.404       .  A
C939        C940   1.398       .  A
C939        F944   1.358       .  S
C940        C941   1.406       .  A
C940        H945   1.084       .  S
C941        C942   1.411       .  A
C942        F946   1.357       .  S
C943        C948   1.400       .  A
C943        C952   1.405       .  A
C948        C949   1.394       .  A
C948        F953   1.358       .  S
C949        C950   1.410       .  A
C949        H954   1.084       .  S
C950        C951   1.409       .  A
C951        C952   1.404       .  A
C951        F955   1.357       .  S
C952        H956   1.084       .  S
C957        C958   1.403       .  A
C957        C962   1.396       .  A
C957        H967   1.083       .  S
C958        C963   1.486       .  S
C958        C959   1.410       .  A
C959        C960   1.400       .  A
C959        F964   1.357       .  S
C960        C961   1.405       .  A
C960        H965   1.084       .  S
C961        C962   1.409       .  A
C962        F966   1.358       .  S
C963        C968   1.410       .  A
C963        C972   1.401       .  A
C968        C969   1.402       .  A
C968        F973   1.357       .  S
C969        C970   1.405       .  A
C969        H974   1.083       .  S
C970        C971   1.414       .  A
C971        C972   1.396       .  A
C971        F975   1.358       .  S
C972        H976   1.083       .  S
C977        C978   1.403       .  A
C977        C982   1.398       .  A
C977        H987   1.085       .  S
C978        C983   1.485       .  S
C978        C979   1.409       .  A
C979        C980   1.400       .  A
C979        F984   1.357       .  S
C980        C981   1.401       .  A
C980        H985   1.084       .  S
C981        C982   1.410       .  A
C982        F986   1.359       .  S
C983        C988   1.406       .  A
C983        C992   1.402       .  A
C988        C989   1.402       .  A
C988        F993   1.357       .  S
C989        C990   1.409       .  A
C989        H994   1.084       .  S
C990        C991   1.412       .  A
C991        C992   1.397       .  A
C991        F995   1.357       .  S
C992        H996   1.085       .  S
C997        C998   1.401       .  A
C997       C1002   1.398       .  A
C997       H1007   1.084       .  S
C998       C1003   1.468       .  S
C998        C999   1.400       .  A
C999       C1000   1.393       .  A
C999       F1004   1.358       .  S
C1000      C1001   1.408       .  A
C1000      H1005   1.085       .  S
C1001      C1002   1.408       .  A
C1002      F1006   1.357       .  S
C1003      C1008   1.400       .  A
C1003      C1012   1.400       .  A
C1008      C1009   1.395       .  A
C1008      F1013   1.358       .  S
C1009      C1010   1.409       .  A
C1009      H1014   1.084       .  S
C1010      C1011   1.412       .  A
C1011      C1012   1.397       .  A
C1011      F1015   1.357       .  S
C1012      H1016   1.085       .  S
C1017      C1018   1.404       .  A
C1017      C1022   1.406       .  A
C1017      H1027   1.084       .  S
C1018      C1023   1.483       .  S
C1018      C1019   1.403       .  A
C1019      C1020   1.395       .  A
C1019      F1024   1.358       .  S
C1020      C1021   1.408       .  A
C1020      H1025   1.084       .  S
C1021      C1022   1.413       .  A
C1022      F1026   1.357       .  S
C1023      C1028   1.403       .  A
C1023      C1032   1.406       .  A
C1028      C1029   1.394       .  A
C1028      F1033   1.358       .  S
C1029      C1030   1.407       .  A
C1029      H1034   1.084       .  S
C1030      C1031   1.411       .  A
C1031      C1032   1.407       .  A
C1031      F1035   1.357       .  S
C1032      H1036   1.084       .  S
C1037      C1038   1.407       .  A
C1037      C1042   1.405       .  A
C1037      H1047   1.084       .  S
C1038      C1043   1.487   1_554  S
C1038      C1039   1.404   1_554  A
C1039      C1040   1.394   1_556  A
C1039      F1044   1.358       .  S
C1040      C1041   1.409       .  A
C1040      H1045   1.084   1_554  S
C1041      C1042   1.410       .  A
C1042      F1046   1.357       .  S
C1043      C1048   1.410       .  A
C1043      C1052   1.403   1_556  A
C1048      C1049   1.401       .  A
C1048      F1053   1.357       .  S
C1049      C1050   1.402       .  A
C1049      H1054   1.084       .  S
C1050      C1051   1.410   1_556  A
C1051      C1052   1.398       .  A
C1051      F1055   1.358       .  S
C1052      H1056   1.084       .  S
C1057      C1058   1.401       .  A
C1057      C1062   1.399       .  A
C1057      H1067   1.083       .  S
C1058      C1063   1.480       .  S
C1058      C1059   1.405       .  A
C1059      C1060   1.402       .  A
C1059      F1064   1.357       .  S
C1060      C1061   1.407       .  A
C1060      H1065   1.083       .  S
C1061      C1062   1.411       .  A
C1062      F1066   1.357       .  S
C1063      C1068   1.403       .  A
C1063      C1072   1.402       .  A
C1068      C1069   1.400       .  A
C1068      F1073   1.357       .  S
C1069      C1070   1.409       .  A
C1069      H1074   1.084       .  S
C1070      C1071   1.411       .  A
C1071      C1072   1.400       .  A
C1071      F1075   1.357       .  S
C1072      H1076   1.085       .  S
C1077      C1078   1.406       .  A
C1077      C1082   1.402       .  A
C1077      H1087   1.084       .  S
C1078      C1083   1.491       .  S
C1078      C1079   1.407       .  A
C1079      C1080   1.400       .  A
C1079      F1084   1.357       .  S
C1080      C1081   1.407       .  A
C1080      H1085   1.084       .  S
C1081      C1082   1.412       .  A
C1082      F1086   1.357       .  S
C1083      C1088   1.409       .  A
C1083      C1092   1.407       .  A
C1088      C1089   1.401       .  A
C1088      F1093   1.358       .  S
C1089      C1090   1.406       .  A
C1089      H1094   1.084       .  S
C1090      C1091   1.407       .  A
C1091      C1092   1.401       .  A
C1091      F1095   1.357       .  S
C1092      H1096   1.084       .  S
C1097      C1098   1.400       .  A
C1097      C1102   1.394       .  A
C1097      H1107   1.085       .  S
C1098      C1103   1.480       .  S
C1098      C1099   1.407       .  A
C1099      C1100   1.403       .  A
C1099      F1104   1.357       .  S
C1100      C1101   1.405       .  A
C1100      H1105   1.085       .  S
C1101      C1102   1.409       .  A
C1102      F1106   1.358       .  S
C1103      C1108   1.403       .  A
C1103      C1112   1.403       .  A
C1108      C1109   1.396       .  A
C1108      F1113   1.358       .  S
C1109      C1110   1.408       .  A
C1109      H1114   1.084       .  S
C1110      C1111   1.411       .  A
C1111      C1112   1.401       .  A
C1111      F1115   1.357       .  S
C1112      H1116   1.085       .  S
C1117      C1118   1.399       .  A
C1117      C1122   1.395       .  A
C1117      H1127   1.086       .  S
C1118      C1123   1.473       .  S
C1118      C1119   1.403       .  A
C1119      C1120   1.400       .  A
C1119      F1124   1.357       .  S
C1120      C1121   1.408       .  A
C1120      H1125   1.085       .  S
C1121      C1122   1.412       .  A
C1122      F1126   1.358       .  S
C1123      C1128   1.399       .  A
C1123      C1132   1.403       .  A
C1128      C1129   1.391   1_554  A
C1128      F1133   1.358       .  S
C1129      C1130   1.409       .  A
C1129      H1134   1.084       .  S
C1130      C1131   1.412       .  A
C1131      C1132   1.404   1_556  A
C1131      F1135   1.357       .  S
C1132      H1136   1.085       .  S
C1137      C1138   1.403       .  A
C1137      C1142   1.396       .  A
C1137      H1147   1.084       .  S
C1138      C1143   1.479       .  S
C1138      C1139   1.407       .  A
C1139      C1140   1.395       .  A
C1139      F1144   1.358       .  S
C1140      C1141   1.403       .  A
C1140      H1145   1.084       .  S
C1141      C1142   1.408       .  A
C1142      F1146   1.358       .  S
C1143      C1148   1.406       .  A
C1143      C1152   1.403       .  A
C1148      C1149   1.397       .  A
C1148      F1153   1.357       .  S
C1149      C1150   1.405       .  A
C1149      H1154   1.084       .  S
C1150      C1151   1.408       .  A
C1151      C1152   1.394       .  A
C1151      F1155   1.358       .  S
C1152      H1156   1.084       .  S
C1157      C1158   1.408       .  A
C1157      C1162   1.399       .  A
C1157      H1167   1.082       .  S
C1158      C1163   1.492       .  S
C1158      C1159   1.409       .  A
C1159      C1160   1.397       .  A
C1159      F1164   1.357       .  S
C1160      C1161   1.407       .  A
C1160      H1165   1.083       .  S
C1161      C1162   1.406       .  A
C1162      F1166   1.357       .  S
C1163      C1168   1.410       .  A
C1163      C1172   1.407       .  A
C1168      C1169   1.396       .  A
C1168      F1173   1.357       .  S
C1169      C1170   1.405       .  A
C1169      H1174   1.085       .  S
C1170      C1171   1.408       .  A
C1171      C1172   1.399       .  A
C1171      F1175   1.357       .  S
C1172      H1176   1.084       .  S
C1177      C1178   1.399       .  A
C1177      C1182   1.395       .  A
C1177      H1187   1.085       .  S
C1178      C1183   1.472       .  S
C1178      C1179   1.403       .  A
C1179      C1180   1.398       .  A
C1179      F1184   1.357       .  S
C1180      C1181   1.407       .  A
C1180      H1185   1.084       .  S
C1181      C1182   1.413       .  A
C1182      F1186   1.358       .  S
C1183      C1188   1.402       .  A
C1183      C1192   1.401       .  A
C1188      C1189   1.396       .  A
C1188      F1193   1.358       .  S
C1189      C1190   1.408       .  A
C1189      H1194   1.084       .  S
C1190      C1191   1.410       .  A
C1191      C1192   1.397       .  A
C1191      F1195   1.357       .  S
C1192      H1196   1.084       .  S
C1197      C1198   1.406       .  A
C1197      C1202   1.400   1_556  A
C1197      H1207   1.085       .  S
C1198      C1203   1.480       .  S
C1198      C1199   1.404       .  A
C1199      C1200   1.393   1_556  A
C1199      F1204   1.358       .  S
C1200      C1201   1.405       .  A
C1200      H1205   1.085       .  S
C1201      C1202   1.406       .  A
C1202      F1206   1.357       .  S
C1203      C1208   1.407       .  A
C1203      C1212   1.401       .  A
C1208      C1209   1.399       .  A
C1208      F1213   1.357       .  S
C1209      C1210   1.405       .  A
C1209      H1214   1.084       .  S
C1210      C1211   1.413       .  A
C1211      C1212   1.395       .  A
C1211      F1215   1.358       .  S
C1212      H1216   1.085       .  S
C1217      C1218   1.406       .  A
C1217      C1222   1.400       .  A
C1217      H1227   1.084       .  S
C1218      C1223   1.482       .  S
C1218      C1219   1.405       .  A
C1219      C1220   1.393       .  A
C1219      F1224   1.358       .  S
C1220      C1221   1.407       .  A
C1220      H1225   1.084       .  S
C1221      C1222   1.408       .  A
C1222      F1226   1.357       .  S
C1223      C1228   1.406       .  A
C1223      C1232   1.403       .  A
C1228      C1229   1.397       .  A
C1228      F1233   1.357       .  S
C1229      C1230   1.406       .  A
C1229      H1234   1.084       .  S
C1230      C1231   1.411       .  A
C1231      C1232   1.395       .  A
C1231      F1235   1.358       .  S
C1232      H1236   1.085       .  S
C1237      C1238   1.405       .  A
C1237      C1242   1.402       .  A
C1237      H1247   1.084       .  S
C1238      C1243   1.489       .  S
C1238      C1239   1.407       .  A
C1239      C1240   1.398       .  A
C1239      F1244   1.358       .  S
C1240      C1241   1.407       .  A
C1240      H1245   1.084       .  S
C1241      C1242   1.412       .  A
C1242      F1246   1.357       .  S
C1243      C1248   1.410       .  A
C1243      C1252   1.403       .  A
C1248      C1249   1.404       .  A
C1248      F1253   1.357       .  S
C1249      C1250   1.407       .  A
C1249      H1254   1.085       .  S
C1250      C1251   1.410       .  A
C1251      C1252   1.396       .  A
C1251      F1255   1.358       .  S
C1252      H1256   1.084       .  S
C1257      C1258   1.404       .  A
C1257      C1262   1.401       .  A
C1257      H1267   1.085       .  S
C1258      C1263   1.483   1_655  S
C1258      C1259   1.404       .  A
C1259      C1260   1.400       .  A
C1259      F1264   1.358       .  S
C1260      C1261   1.409       .  A
C1260      H1265   1.084       .  S
C1261      C1262   1.410       .  A
C1262      F1266   1.357       .  S
C1263      C1268   1.404       .  A
C1263      C1272   1.403       .  A
C1268      C1269   1.399       .  A
C1268      F1273   1.357       .  S
C1269      C1270   1.407       .  A
C1269      H1274   1.084       .  S
C1270      C1271   1.413       .  A
C1271      C1272   1.400       .  A
C1271      F1275   1.358       .  S
C1272      H1276   1.084       .  S
C1277      C1278   1.403       .  A
C1277      C1282   1.399       .  A
C1277      H1287   1.084       .  S
C1278      C1283   1.488       .  S
C1278      C1279   1.408       .  A
C1279      C1280   1.401       .  A
C1279      F1284   1.357       .  S
C1280      C1281   1.406       .  A
C1280      H1285   1.084       .  S
C1281      C1282   1.413       .  A
C1282      F1286   1.358       .  S
C1283      C1288   1.410       .  A
C1283      C1292   1.402       .  A
C1288      C1289   1.403       .  A
C1288      F1293   1.357       .  S
C1289      C1290   1.404       .  A
C1289      H1294   1.083       .  S
C1290      C1291   1.411       .  A
C1291      C1292   1.397       .  A
C1291      F1295   1.358       .  S
C1292      H1296   1.084       .  S
C1297      C1298   1.400       .  A
C1297      C1302   1.397       .  A
C1297      H1307   1.085       .  S
C1298      C1303   1.472   1_655  S
C1298      C1299   1.402       .  A
C1299      C1300   1.397       .  A
C1299      F1304   1.358   1_554  S
C1300      C1301   1.409       .  A
C1300      H1305   1.085       .  S
C1301      C1302   1.409       .  A
C1302      F1306   1.357       .  S
C1303      C1308   1.402       .  A
C1303      C1312   1.400       .  A
C1308      C1309   1.397       .  A
C1308      F1313   1.358       .  S
C1309      C1310   1.408       .  A
C1309      H1314   1.083       .  S
C1310      C1311   1.412       .  A
C1311      C1312   1.397       .  A
C1311      F1315   1.357       .  S
C1312      H1316   1.084       .  S
C1317      C1318   1.404       .  A
C1317      C1322   1.395       .  A
C1317      H1327   1.085       .  S
C1318      C1323   1.481       .  S
C1318      C1319   1.406       .  A
C1319      C1320   1.399       .  A
C1319      F1324   1.357       .  S
C1320      C1321   1.406       .  A
C1320      H1325   1.084       .  S
C1321      C1322   1.408       .  A
C1322      F1326   1.358       .  S
C1323      C1328   1.405       .  A
C1323      C1332   1.405       .  A
C1328      C1329   1.393       .  A
C1328      F1333   1.358       .  S
C1329      C1330   1.405       .  A
C1329      H1334   1.084       .  S
C1330      C1331   1.410       .  A
C1331      C1332   1.401       .  A
C1331      F1335   1.357       .  S
C1332      H1336   1.085       .  S
C1337      C1338   1.404       .  A
C1337      C1342   1.403       .  A
C1337      H1347   1.085       .  S
C1338      C1343   1.475       .  S
C1338      C1339   1.401       .  A
C1339      C1340   1.391       .  A
C1339      F1344   1.358       .  S
C1340      C1341   1.406       .  A
C1340      H1345   1.084       .  S
C1341      C1342   1.409       .  A
C1342      F1346   1.357       .  S
C1343      C1348   1.404       .  A
C1343      C1352   1.399       .  A
C1348      C1349   1.401       .  A
C1348      F1353   1.357       .  S
C1349      C1350   1.408       .  A
C1349      H1354   1.085       .  S
C1350      C1351   1.413       .  A
C1351      C1352   1.392       .  A
C1351      F1355   1.358       .  S
C1352      H1356   1.086       .  S
C1357      C1358   1.400       .  A
C1357      C1362   1.395       .  A
C1357      H1367   1.084       .  S
C1358      C1363   1.480       .  S
C1358      C1359   1.406       .  A
C1359      C1360   1.401       .  A
C1359      F1364   1.357       .  S
C1360      C1361   1.407       .  A
C1360      H1365   1.083       .  S
C1361      C1362   1.413       .  A
C1362      F1366   1.358       .  S
C1363      C1368   1.406       .  A
C1363      C1372   1.402       .  A
C1368      C1369   1.400       .  A
C1368      F1373   1.357       .  S
C1369      C1370   1.406       .  A
C1369      H1374   1.084       .  S
C1370      C1371   1.411       .  A
C1371      C1372   1.396       .  A
C1371      F1375   1.358       .  S
C1372      H1376   1.085       .  S
C1377      C1378   1.404       .  A
C1377      C1382   1.396       .  A
C1377      H1387   1.085   1_556  S
C1378      C1383   1.483   1_455  S
C1378      C1379   1.408       .  A
C1379      C1380   1.400       .  A
C1379      F1384   1.357       .  S
C1380      C1381   1.405       .  A
C1380      H1385   1.084       .  S
C1381      C1382   1.409       .  A
C1382      F1386   1.358   1_556  S
C1383      C1388   1.408       .  A
C1383      C1392   1.404       .  A
C1388      C1389   1.400       .  A
C1388      F1393   1.357       .  S
C1389      C1390   1.405       .  A
C1389      H1394   1.083       .  S
C1390      C1391   1.406       .  A
C1391      C1392   1.394       .  A
C1391      F1395   1.358       .  S
C1392      H1396   1.083       .  S
C1397      C1398   1.401       .  A
C1397      C1402   1.396       .  A
C1397      H1407   1.084       .  S
C1398      C1403   1.482       .  S
C1398      C1399   1.408       .  A
C1399      C1400   1.398       .  A
C1399      F1404   1.357       .  S
C1400      C1401   1.405       .  A
C1400      H1405   1.083       .  S
C1401      C1402   1.413       .  A
C1402      F1406   1.358       .  S
C1403      C1408   1.403       .  A
C1403      C1412   1.408       .  A
C1408      C1409   1.394       .  A
C1408      F1413   1.358       .  S
C1409      C1410   1.407       .  A
C1409      H1414   1.082       .  S
C1410      C1411   1.406       .  A
C1411      C1412   1.402       .  A
C1411      F1415   1.357       .  S
C1412      H1416   1.082       .  S
C1417      C1418   1.403   1_554  A
C1417      C1422   1.398   1_554  A
C1417      H1427   1.083       .  S
C1418      C1423   1.486   1_556  S
C1418      C1419   1.409       .  A
C1419      C1420   1.397       .  A
C1419      F1424   1.357       .  S
C1420      C1421   1.404       .  A
C1420      H1425   1.083       .  S
C1421      C1422   1.412       .  A
C1422      F1426   1.358       .  S
C1423      C1428   1.411       .  A
C1423      C1432   1.403   1_554  A
C1428      C1429   1.402       .  A
C1428      F1433   1.357       .  S
C1429      C1430   1.403       .  A
C1429      H1434   1.083       .  S
C1430      C1431   1.407   1_554  A
C1431      C1432   1.393       .  A
C1431      F1435   1.358       .  S
C1432      H1436   1.083       .  S
C1437      C1438   1.400       .  A
C1437      C1442   1.394       .  A
C1437      H1447   1.084       .  S
C1438      C1443   1.469   1_655  S
C1438      C1439   1.405       .  A
C1439      C1440   1.396       .  A
C1439      F1444   1.358       .  S
C1440      C1441   1.402       .  A
C1440      H1445   1.084       .  S
C1441      C1442   1.407       .  A
C1442      F1446   1.358       .  S
C1443      C1448   1.402       .  A
C1443      C1452   1.400       .  A
C1448      C1449   1.395       .  A
C1448      F1453   1.358       .  S
C1449      C1450   1.407       .  A
C1449      H1454   1.083       .  S
C1450      C1451   1.412       .  A
C1451      C1452   1.396       .  A
C1451      F1455   1.357       .  S
C1452      H1456   1.083       .  S
C1457      C1458   1.405       .  A
C1457      C1462   1.401       .  A
C1457      H1467   1.085       .  S
C1458      C1463   1.484       .  S
C1458      C1459   1.406       .  A
C1459      C1460   1.394       .  A
C1459      F1464   1.358       .  S
C1460      C1461   1.406       .  A
C1460      H1465   1.084       .  S
C1461      C1462   1.411       .  A
C1462      F1466   1.357       .  S
C1463      C1468   1.409       .  A
C1463      C1472   1.401       .  A
C1468      C1469   1.402       .  A
C1468      F1473   1.357       .  S
C1469      C1470   1.406       .  A
C1469      H1474   1.084       .  S
C1470      C1471   1.411       .  A
C1471      C1472   1.393       .  A
C1471      F1475   1.358       .  S
C1472      H1476   1.084       .  S
C1477      C1478   1.399       .  A
C1477      C1482   1.395       .  A
C1477      H1487   1.085       .  S
C1478      C1483   1.475       .  S
C1478      C1479   1.405       .  A
C1479      C1480   1.398       .  A
C1479      F1484   1.357       .  S
C1480      C1481   1.406       .  A
C1480      H1485   1.085       .  S
C1481      C1482   1.412       .  A
C1482      F1486   1.358       .  S
C1483      C1488   1.401       .  A
C1483      C1492   1.406       .  A
C1488      C1489   1.392       .  A
C1488      F1493   1.358       .  S
C1489      C1490   1.408       .  A
C1489      H1494   1.085       .  S
C1490      C1491   1.406       .  A
C1491      C1492   1.402       .  A
C1491      F1495   1.357       .  S
C1492      H1496   1.085       .  S
C1497      C1498   1.405       .  A
C1497      C1502   1.403       .  A
C1497      H1507   1.083       .  S
C1498      C1503   1.495       .  S
C1498      C1499   1.410       .  A
C1499      C1500   1.402       .  A
C1499      F1504   1.357       .  S
C1500      C1501   1.407       .  A
C1500      H1505   1.083       .  S
C1501      C1502   1.413       .  A
C1502      F1506   1.357       .  S
C1503      C1508   1.407       .  A
C1503      C1512   1.409       .  A
C1508      C1509   1.399       .  A
C1508      F1513   1.357       .  S
C1509      C1510   1.407       .  A
C1509      H1514   1.082       .  S
C1510      C1511   1.409       .  A
C1511      C1512   1.407       .  A
C1511      F1515   1.357       .  S
C1512      H1516   1.082       .  S
C1517      C1518   1.401       .  A
C1517      C1522   1.398       .  A
C1517      H1527   1.085       .  S
C1518      C1523   1.483       .  S
C1518      C1519   1.407       .  A
C1519      C1520   1.400       .  A
C1519      F1524   1.357       .  S
C1520      C1521   1.405       .  A
C1520      H1525   1.084       .  S
C1521      C1522   1.415       .  A
C1522      F1526   1.358       .  S
C1523      C1528   1.406       .  A
C1523      C1532   1.404       .  A
C1528      C1529   1.399       .  A
C1528      F1533   1.358       .  S
C1529      C1530   1.406       .  A
C1529      H1534   1.083       .  S
C1530      C1531   1.408       .  A
C1531      C1532   1.399       .  A
C1531      F1535   1.357       .  S
C1532      H1536   1.083       .  S
C1537      C1538   1.401       .  A
C1537      C1542   1.401       .  A
C1537      H1547   1.085       .  S
C1538      C1543   1.471       .  S
C1538      C1539   1.400       .  A
C1539      C1540   1.394       .  A
C1539      F1544   1.358       .  S
C1540      C1541   1.407       .  A
C1540      H1545   1.084       .  S
C1541      C1542   1.411       .  A
C1542      F1546   1.357   1_556  S
C1543      C1548   1.401       .  A
C1543      C1552   1.400       .  A
C1548      C1549   1.396       .  A
C1548      F1553   1.358       .  S
C1549      C1550   1.408       .  A
C1549      H1554   1.083       .  S
C1550      C1551   1.412       .  A
C1551      C1552   1.398       .  A
C1551      F1555   1.357       .  S
C1552      H1556   1.084       .  S
C1557      C1558   1.403       .  A
C1557      C1562   1.400       .  A
C1557      H1567   1.084       .  S
C1558      C1563   1.480       .  S
C1558      C1559   1.406       .  A
C1559      C1560   1.395       .  A
C1559      F1564   1.358       .  S
C1560      C1561   1.404       .  A
C1560      H1565   1.084       .  S
C1561      C1562   1.410       .  A
C1562      F1566   1.357       .  S
C1563      C1568   1.406       .  A
C1563      C1572   1.401       .  A
C1568      C1569   1.401       .  A
C1568      F1573   1.358       .  S
C1569      C1570   1.408       .  A
C1569      H1574   1.084       .  S
C1570      C1571   1.411       .  A
C1571      C1572   1.394       .  A
C1571      F1575   1.357       .  S
C1572      H1576   1.084       .  S
C1577      C1578   1.402       .  A
C1577      C1582   1.395       .  A
C1577      H1587   1.084       .  S
C1578      C1583   1.485       .  S
C1578      C1579   1.409       .  A
C1579      C1580   1.399       .  A
C1579      F1584   1.357       .  S
C1580      C1581   1.404       .  A
C1580      H1585   1.084       .  S
C1581      C1582   1.413       .  A
C1582      F1586   1.358       .  S
C1583      C1588   1.405       .  A
C1583      C1592   1.408       .  A
C1588      C1589   1.394       .  A
C1588      F1593   1.357       .  S
C1589      C1590   1.407       .  A
C1589      H1594   1.083       .  S
C1590      C1591   1.408       .  A
C1591      C1592   1.401       .  A
C1591      F1595   1.357       .  S
C1592      H1596   1.083       .  S
C1597      C1598   1.404       .  A
C1597      C1602   1.399       .  A
C1597      H1607   1.085       .  S
C1598      C1603   1.479       .  S
C1598      C1599   1.404       .  A
C1599      C1600   1.394       .  A
C1599      F1604   1.358       .  S
C1600      C1601   1.408       .  A
C1600      H1605   1.084       .  S
C1601      C1602   1.410       .  A
C1602      F1606   1.357       .  S
C1603      C1608   1.406       .  A
C1603      C1612   1.401       .  A
C1608      C1609   1.397       .  A
C1608      F1613   1.357       .  S
C1609      C1610   1.406       .  A
C1609      H1614   1.085       .  S
C1610      C1611   1.411       .  A
C1611      C1612   1.395       .  A
C1611      F1615   1.358       .  S
C1612      H1616   1.086       .  S
C1617      C1618   1.402       .  A
C1617      C1622   1.394       .  A
C1617      H1627   1.085       .  S
C1618      C1623   1.481       .  S
C1618      C1619   1.406       .  A
C1619      C1620   1.400       .  A
C1619      F1624   1.357       .  S
C1620      C1621   1.407       .  A
C1620      H1625   1.085       .  S
C1621      C1622   1.409       .  A
C1622      F1626   1.357       .  S
C1623      C1628   1.406       .  A
C1623      C1632   1.403       .  A
C1628      C1629   1.396       .  A
C1628      F1633   1.358       .  S
C1629      C1630   1.405       .  A
C1629      H1634   1.084       .  S
C1630      C1631   1.412       .  A
C1631      C1632   1.399       .  A
C1631      F1635   1.357       .  S
C1632      H1636   1.085       .  S
C1637      C1638   1.401       .  A
C1637      C1642   1.394       .  A
C1637      H1647   1.083       .  S
C1638      C1643   1.481       .  S
C1638      C1639   1.409       .  A
C1639      C1640   1.403       .  A
C1639      F1644   1.358       .  S
C1640      C1641   1.404       .  A
C1640      H1645   1.083       .  S
C1641      C1642   1.408       .  A
C1642      F1646   1.358       .  S
C1643      C1648   1.407       .  A
C1643      C1652   1.401       .  A
C1648      C1649   1.400       .  A
C1648      F1653   1.357       .  S
C1649      C1650   1.406       .  A
C1649      H1654   1.084       .  S
C1650      C1651   1.412       .  A
C1651      C1652   1.396       .  A
C1651      F1655   1.358       .  S
C1652      H1656   1.084       .  S
C1657      C1658   1.404       .  A
C1657      C1662   1.394       .  A
C1657      H1667   1.085       .  S
C1658      C1663   1.481       .  S
C1658      C1659   1.406       .  A
C1659      C1660   1.399       .  A
C1659      F1664   1.357       .  S
C1660      C1661   1.406       .  A
C1660      H1665   1.085       .  S
C1661      C1662   1.407       .  A
C1662      F1666   1.358       .  S
C1663      C1668   1.404       .  A
C1663      C1672   1.405       .  A
C1668      C1669   1.393       .  A
C1668      F1673   1.358       .  S
C1669      C1670   1.408       .  A
C1669      H1674   1.084       .  S
C1670      C1671   1.410       .  A
C1671      C1672   1.401       .  A
C1671      F1675   1.357       .  S
C1672      H1676   1.084       .  S
C1677      C1678   1.400       .  A
C1677      C1682   1.392       .  A
C1677      H1687   1.085       .  S
C1678      C1683   1.480       .  S
C1678      C1679   1.407       .  A
C1679      C1680   1.402       .  A
C1679      F1684   1.358       .  S
C1680      C1681   1.408       .  A
C1680      H1685   1.085       .  S
C1681      C1682   1.410       .  A
C1682      F1686   1.357       .  S
C1683      C1688   1.405       .  A
C1683      C1692   1.403       .  A
C1688      C1689   1.395       .  A
C1688      F1693   1.358       .  S
C1689      C1690   1.407       .  A
C1689      H1694   1.085       .  S
C1690      C1691   1.411       .  A
C1691      C1692   1.401       .  A
C1691      F1695   1.357       .  S
C1692      H1696   1.085       .  S
C1697      C1698   1.404       .  A
C1697      C1702   1.399       .  A
C1697      H1707   1.082       .  S
C1698      C1703   1.479       .  S
C1698      C1699   1.403       .  A
C1699      C1700   1.397       .  A
C1699      F1704   1.358       .  S
C1700      C1701   1.411       .  A
C1700      H1705   1.083       .  S
C1701      C1702   1.408       .  A
C1702      F1706   1.357       .  S
C1703      C1708   1.406       .  A
C1703      C1712   1.402       .  A
C1708      C1709   1.398   1_554  A
C1708      F1713   1.357       .  S
C1709      C1710   1.404       .  A
C1709      H1714   1.084       .  S
C1710      C1711   1.410       .  A
C1711      C1712   1.397   1_556  A
C1711      F1715   1.358       .  S
C1712      H1716   1.084       .  S
C1717      C1718   1.405       .  A
C1717      C1722   1.408       .  A
C1717      H1727   1.083       .  S
C1718      C1723   1.486       .  S
C1718      C1719   1.402       .  A
C1719      C1720   1.397       .  A
C1719      F1724   1.358       .  S
C1720      C1721   1.409       .  A
C1720      H1725   1.083       .  S
C1721      C1722   1.414       .  A
C1722      F1726   1.357       .  S
C1723      C1728   1.407       .  A
C1723      C1732   1.401       .  A
C1728      C1729   1.403       .  A
C1728      F1733   1.357       .  S
C1729      C1730   1.406       .  A
C1729      H1734   1.084       .  S
C1730      C1731   1.413       .  A
C1731      C1732   1.401       .  A
C1731      F1735   1.358       .  S
C1732      H1736   1.085       .  S
C1737      C1738   1.402       .  A
C1737      C1742   1.396       .  A
C1737      H1747   1.084       .  S
C1738      C1743   1.480       .  S
C1738      C1739   1.406       .  A
C1739      C1740   1.402       .  A
C1739      F1744   1.357       .  S
C1740      C1741   1.406       .  A
C1740      H1745   1.084       .  S
C1741      C1742   1.409       .  A
C1742      F1746   1.358       .  S
C1743      C1748   1.404       .  A
C1743      C1752   1.402       .  A
C1748      C1749   1.399       .  A
C1748      F1753   1.357       .  S
C1749      C1750   1.407       .  A
C1749      H1754   1.083       .  S
C1750      C1751   1.413       .  A
C1751      C1752   1.399       .  A
C1751      F1755   1.357       .  S
C1752      H1756   1.083       .  S
C1757      C1758   1.408       .  A
C1757      C1762   1.408       .  A
C1757      H1767   1.084       .  S
C1758      C1763   1.489   1_545  S
C1758      C1759   1.404       .  A
C1759      C1760   1.394       .  A
C1759      F1764   1.357       .  S
C1760      C1761   1.408       .  A
C1760      H1765   1.083       .  S
C1761      C1762   1.412       .  A
C1762      F1766   1.357       .  S
C1763      C1768   1.409       .  A
C1763      C1772   1.403       .  A
C1768      C1769   1.407       .  A
C1768      F1773   1.357       .  S
C1769      C1770   1.407       .  A
C1769      H1774   1.085       .  S
C1770      C1771   1.411       .  A
C1771      C1772   1.396       .  A
C1771      F1775   1.358       .  S
C1772      H1776   1.085       .  S
C1777      C1778   1.402       .  A
C1777      C1782   1.400       .  A
C1777      H1787   1.085       .  S
C1778      C1783   1.479       .  S
C1778      C1779   1.403       .  A
C1779      C1780   1.398       .  A
C1779      F1784   1.357       .  S
C1780      C1781   1.407       .  A
C1780      H1785   1.084       .  S
C1781      C1782   1.413       .  A
C1782      F1786   1.358       .  S
C1783      C1788   1.404       .  A
C1783      C1792   1.403       .  A
C1788      C1789   1.398       .  A
C1788      F1793   1.357       .  S
C1789      C1790   1.406       .  A
C1789      H1794   1.084       .  S
C1790      C1791   1.410       .  A
C1791      C1792   1.399       .  A
C1791      F1795   1.358       .  S
C1792      H1796   1.084       .  S
C1797      C1798   1.404       .  A
C1797      C1802   1.403   1_556  A
C1797      H1807   1.085       .  S
C1798      C1803   1.475       .  S
C1798      C1799   1.401       .  A
C1799      C1800   1.393   1_556  A
C1799      F1804   1.358       .  S
C1800      C1801   1.406       .  A
C1800      H1805   1.085       .  S
C1801      C1802   1.409       .  A
C1802      F1806   1.357       .  S
C1803      C1808   1.401       .  A
C1803      C1812   1.402       .  A
C1808      C1809   1.398       .  A
C1808      F1813   1.357       .  S
C1809      C1810   1.409       .  A
C1809      H1814   1.084       .  S
C1810      C1811   1.412       .  A
C1811      C1812   1.398       .  A
C1811      F1815   1.357       .  S
C1812      H1816   1.085       .  S
C1817      C1818   1.403       .  A
C1817      C1822   1.399       .  A
C1817      H1827   1.085       .  S
C1818      C1823   1.475       .  S
C1818      C1819   1.402       .  A
C1819      C1820   1.395       .  A
C1819      F1824   1.357       .  S
C1820      C1821   1.406       .  A
C1820      H1825   1.085       .  S
C1821      C1822   1.411       .  A
C1822      F1826   1.358       .  S
C1823      C1828   1.406       .  A
C1823      C1832   1.398       .  A
C1828      C1829   1.399       .  A
C1828      F1833   1.357       .  S
C1829      C1830   1.405       .  A
C1829      H1834   1.084       .  S
C1830      C1831   1.414       .  A
C1831      C1832   1.394       .  A
C1831      F1835   1.358       .  S
C1832      H1836   1.085       .  S
C1837      C1838   1.407       .  A
C1837      C1842   1.400       .  A
C1837      H1847   1.084       .  S
C1838      C1843   1.487   1_545  S
C1838      C1839   1.407       .  A
C1839      C1840   1.396       .  A
C1839      F1844   1.358       .  S
C1840      C1841   1.405       .  A
C1840      H1845   1.084       .  S
C1841      C1842   1.406       .  A
C1842      F1846   1.357       .  S
C1843      C1848   1.405       .  A
C1843      C1852   1.408       .  A
C1848      C1849   1.395       .  A
C1848      F1853   1.357       .  S
C1849      C1850   1.408       .  A
C1849      H1854   1.083       .  S
C1850      C1851   1.408       .  A
C1851      C1852   1.401       .  A
C1851      F1855   1.357       .  S
C1852      H1856   1.083       .  S
C1857      C1858   1.401       .  A
C1857      C1862   1.399       .  A
C1857      H1867   1.085       .  S
C1858      C1863   1.474       .  S
C1858      C1859   1.402       .  A
C1859      C1860   1.397       .  A
C1859      F1864   1.357       .  S
C1860      C1861   1.408       .  A
C1860      H1865   1.084       .  S
C1861      C1862   1.411       .  A
C1862      F1866   1.357       .  S
C1863      C1868   1.401       .  A
C1863      C1872   1.402       .  A
C1868      C1869   1.397       .  A
C1868      F1873   1.357       .  S
C1869      C1870   1.408       .  A
C1869      H1874   1.084       .  S
C1870      C1871   1.412       .  A
C1871      C1872   1.400       .  A
C1871      F1875   1.357       .  S
C1872      H1876   1.085       .  S
C1877      C1878   1.400       .  A
C1877      C1882   1.396       .  A
C1877      H1887   1.085       .  S
C1878      C1883   1.483   1_545  S
C1878      C1879   1.408       .  A
C1879      C1880   1.403       .  A
C1879      F1884   1.357       .  S
C1880      C1881   1.406       .  A
C1880      H1885   1.085       .  S
C1881      C1882   1.412       .  A
C1882      F1886   1.358       .  S
C1883      C1888   1.409       .  A
C1883      C1892   1.401       .  A
C1888      C1889   1.401       .  A
C1888      F1893   1.357       .  S
C1889      C1890   1.404       .  A
C1889      H1894   1.084       .  S
C1890      C1891   1.412       .  A
C1891      C1892   1.397       .  A
C1891      F1895   1.358       .  S
C1892      H1896   1.084       .  S
C1897      C1898   1.399       .  A
C1897      C1902   1.397       .  A
C1897      H1907   1.084       .  S
C1898      C1903   1.481       .  S
C1898      C1899   1.407       .  A
C1899      C1900   1.403       .  A
C1899      F1904   1.357       .  S
C1900      C1901   1.406       .  A
C1900      H1905   1.083       .  S
C1901      C1902   1.413       .  A
C1902      F1906   1.358       .  S
C1903      C1908   1.406       .  A
C1903      C1912   1.399       .  A
C1908      C1909   1.405       .  A
C1908      F1913   1.357       .  S
C1909      C1910   1.408       .  A
C1909      H1914   1.083       .  S
C1910      C1911   1.415       .  A
C1911      C1912   1.397       .  A
C1911      F1915   1.358       .  S
C1912      H1916   1.085       .  S
C1917      C1918   1.404       .  A
C1917      C1922   1.398       .  A
C1917      H1927   1.085       .  S
C1918      C1923   1.485       .  S
C1918      C1919   1.406       .  A
C1919      C1920   1.398       .  A
C1919      F1924   1.357       .  S
C1920      C1921   1.407       .  A
C1920      H1925   1.085       .  S
C1921      C1922   1.410       .  A
C1922      F1926   1.357       .  S
C1923      C1928   1.408       .  A
C1923      C1932   1.404       .  A
C1928      C1929   1.399       .  A
C1928      F1933   1.357       .  S
C1929      C1930   1.404       .  A
C1929      H1934   1.084       .  S
C1930      C1931   1.409       .  A
C1931      C1932   1.399       .  A
C1931      F1935   1.358       .  S
C1932      H1936   1.084       .  S
C1937      C1938   1.402       .  A
C1937      C1942   1.395       .  A
C1937      H1947   1.086       .  S
C1938      C1943   1.478       .  S
C1938      C1939   1.406       .  A
C1939      C1940   1.398       .  A
C1939      F1944   1.357       .  S
C1940      C1941   1.404       .  A
C1940      H1945   1.085       .  S
C1941      C1942   1.409       .  A
C1942      F1946   1.358       .  S
C1943      C1948   1.403       .  A
C1943      C1952   1.404       .  A
C1948      C1949   1.394       .  A
C1948      F1953   1.358       .  S
C1949      C1950   1.409       .  A
C1949      H1954   1.085       .  S
C1950      C1951   1.408       .  A
C1951      C1952   1.399       .  A
C1951      F1955   1.357       .  S
C1952      H1956   1.085       .  S
C1957      C1958   1.401       .  A
C1957      C1962   1.400       .  A
C1957      H1967   1.085       .  S
C1958      C1963   1.474       .  S
C1958      C1959   1.401       .  A
C1959      C1960   1.398       .  A
C1959      F1964   1.358       .  S
C1960      C1961   1.409       .  A
C1960      H1965   1.084       .  S
C1961      C1962   1.410       .  A
C1962      F1966   1.357       .  S
C1963      C1968   1.405       .  A
C1963      C1972   1.399       .  A
C1968      C1969   1.403       .  A
C1968      F1973   1.357       .  S
C1969      C1970   1.406       .  A
C1969      H1974   1.085       .  S
C1970      C1971   1.409       .  A
C1971      C1972   1.395       .  A
C1971      F1975   1.358       .  S
C1972      H1976   1.085       .  S
C1977      C1978   1.404   1_556  A
C1977      C1982   1.402       .  A
C1977      H1987   1.084       .  S
C1978      C1983   1.477   1_545  S
C1978      C1979   1.401       .  A
C1979      C1980   1.394       .  A
C1979      F1984   1.358       .  S
C1980      C1981   1.409   1_554  A
C1980      H1985   1.084       .  S
C1981      C1982   1.410       .  A
C1982      F1986   1.357       .  S
C1983      C1988   1.404       .  A
C1983      C1992   1.402       .  A
C1988      C1989   1.401       .  A
C1988      F1993   1.357       .  S
C1989      C1990   1.407       .  A
C1989      H1994   1.084       .  S
C1990      C1991   1.408       .  A
C1991      C1992   1.396       .  A
C1991      F1995   1.357       .  S
C1992      H1996   1.085       .  S
C1997      C1998   1.399       .  A
C1997      C2002   1.392       .  A
C1997      H2007   1.083       .  S
C1998      C2003   1.475       .  S
C1998      C1999   1.406       .  A
C1999      C2000   1.398       .  A
C1999      F2004   1.358       .  S
C2000      C2001   1.406       .  A
C2000      H2005   1.083       .  S
C2001      C2002   1.411       .  A
C2002      F2006   1.358       .  S
C2003      C2008   1.407       .  A
C2003      C2012   1.399       .  A
C2008      C2009   1.398       .  A
C2008      F2013   1.358       .  S
C2009      C2010   1.404       .  A
C2009      H2014   1.084       .  S
C2010      C2011   1.412       .  A
C2011      C2012   1.392       .  A
C2011      F2015   1.358       .  S
C2012      H2016   1.084       .  S
C2017      C2018   1.401       .  A
C2017      C2022   1.399       .  A
C2017      H2027   1.084       .  S
C2018      C2023   1.471       .  S
C2018      C2019   1.400       .  A
C2019      C2020   1.396       .  A
C2019      F2024   1.357       .  S
C2020      C2021   1.408       .  A
C2020      H2025   1.083       .  S
C2021      C2022   1.412       .  A
C2022      F2026   1.357       .  S
C2023      C2028   1.400       .  A
C2023      C2032   1.401       .  A
C2028      C2029   1.396       .  A
C2028      F2033   1.357       .  S
C2029      C2030   1.409       .  A
C2029      H2034   1.083       .  S
C2030      C2031   1.412       .  A
C2031      C2032   1.400       .  A
C2031      F2035   1.357       .  S
C2032      H2036   1.084       .  S
C2037      C2038   1.402       .  A
C2037      C2042   1.397       .  A
C2037      H2047   1.085       .  S
C2038      C2043   1.483       .  S
C2038      C2039   1.406       .  A
C2039      C2040   1.402       .  A
C2039      F2044   1.358       .  S
C2040      C2041   1.408       .  A
C2040      H2045   1.084       .  S
C2041      C2042   1.410       .  A
C2042      F2046   1.357       .  S
C2043      C2048   1.404       .  A
C2043      C2052   1.405       .  A
C2048      C2049   1.396       .  A
C2048      F2053   1.358       .  S
C2049      C2050   1.407       .  A
C2049      H2054   1.084       .  S
C2050      C2051   1.411       .  A
C2051      C2052   1.402       .  A
C2051      F2055   1.357       .  S
C2052      H2056   1.085       .  S
C2057      C2058   1.405       .  A
C2057      C2062   1.398       .  A
C2057      H2067   1.085       .  S
C2058      C2063   1.487       .  S
C2058      C2059   1.408       .  A
C2059      C2060   1.400       .  A
C2059      F2064   1.357       .  S
C2060      C2061   1.405       .  A
C2060      H2065   1.085       .  S
C2061      C2062   1.408       .  A
C2062      F2066   1.358       .  S
C2063      C2068   1.407       .  A
C2063      C2072   1.406       .  A
C2068      C2069   1.397       .  A
C2068      F2073   1.358       .  S
C2069      C2070   1.406       .  A
C2069      H2074   1.084       .  S
C2070      C2071   1.408       .  A
C2071      C2072   1.402       .  A
C2071      F2075   1.357       .  S
C2072      H2076   1.084       .  S
C2077      C2078   1.402       .  A
C2077      C2082   1.399       .  A
C2077      H2087   1.084       .  S
C2078      C2083   1.478       .  S
C2078      C2079   1.404       .  A
C2079      C2080   1.397       .  A
C2079      F2084   1.358       .  S
C2080      C2081   1.407       .  A
C2080      H2085   1.084       .  S
C2081      C2082   1.411       .  A
C2082      F2086   1.357       .  S
C2083      C2088   1.404       .  A
C2083      C2092   1.401       .  A
C2088      C2089   1.400       .  A
C2088      F2093   1.357       .  S
C2089      C2090   1.408       .  A
C2089      H2094   1.084       .  S
C2090      C2091   1.411       .  A
C2091      C2092   1.396       .  A
C2091      F2095   1.357       .  S
C2092      H2096   1.085       .  S
C2097      C2098   1.398       .  A
C2097      C2102   1.390       .  A
C2097      H2107   1.086       .  S
C2098      C2103   1.470       .  S
C2098      C2099   1.405       .  A
C2099      C2100   1.400       .  A
C2099      F2104   1.357       .  S
C2100      C2101   1.404       .  A
C2100      H2105   1.085       .  S
C2101      C2102   1.410       .  A
C2102      F2106   1.358       .  S
C2103      C2108   1.403       .  A
C2103      C2112   1.398       .  A
C2108      C2109   1.395       .  A
C2108      F2113   1.358       .  S
C2109      C2110   1.405       .  A
C2109      H2114   1.085       .  S
C2110      C2111   1.414       .  A
C2111      C2112   1.396       .  A
C2111      F2115   1.358       .  S
C2112      H2116   1.085       .  S
C2117      C2118   1.399       .  A
C2117      C2122   1.395   1_554  A
C2117      H2127   1.085       .  S
C2118      C2123   1.476       .  S
C2118      C2119   1.404       .  A
C2119      C2120   1.402   1_554  A
C2119      F2124   1.357       .  S
C2120      C2121   1.409       .  A
C2120      H2125   1.084       .  S
C2121      C2122   1.413       .  A
C2122      F2126   1.357       .  S
C2123      C2128   1.404       .  A
C2123      C2132   1.401       .  A
C2128      C2129   1.401       .  A
C2128      F2133   1.357       .  S
C2129      C2130   1.408       .  A
C2129      H2134   1.084       .  S
C2130      C2131   1.409       .  A
C2131      C2132   1.396       .  A
C2131      F2135   1.357       .  S
C2132      H2136   1.084       .  S
C2137      C2138   1.407       .  A
C2137      C2142   1.404       .  A
C2137      H2147   1.084       .  S
C2138      C2143   1.490   1_455  S
C2138      C2139   1.407       .  A
C2139      C2140   1.398       .  A
C2139      F2144   1.357       .  S
C2140      C2141   1.407       .  A
C2140      H2145   1.084       .  S
C2141      C2142   1.410       .  A
C2142      F2146   1.357       .  S
C2143      C2148   1.408       .  A
C2143      C2152   1.406       .  A
C2148      C2149   1.399       .  A
C2148      F2153   1.357       .  S
C2149      C2150   1.405       .  A
C2149      H2154   1.083       .  S
C2150      C2151   1.409       .  A
C2151      C2152   1.402       .  A
C2151      F2155   1.357       .  S
C2152      H2156   1.083       .  S
C2157      C2158   1.403       .  A
C2157      C2162   1.398       .  A
C2157      H2167   1.084       .  S
C2158      C2163   1.482       .  S
C2158      C2159   1.407       .  A
C2159      C2160   1.398       .  A
C2159      F2164   1.357       .  S
C2160      C2161   1.404       .  A
C2160      H2165   1.084       .  S
C2161      C2162   1.409       .  A
C2162      F2166   1.358       .  S
C2163      C2168   1.403       .  A
C2163      C2172   1.406       .  A
C2168      C2169   1.394       .  A
C2168      F2173   1.358       .  S
C2169      C2170   1.408       .  A
C2169      H2174   1.084       .  S
C2170      C2171   1.409       .  A
C2171      C2172   1.401       .  A
C2171      F2175   1.357       .  S
C2172      H2176   1.084       .  S
C2177      C2178   1.403       .  A
C2177      C2182   1.396       .  A
C2177      H2187   1.084       .  S
C2178      C2183   1.481       .  S
C2178      C2179   1.408       .  A
C2179      C2180   1.398       .  A
C2179      F2184   1.358       .  S
C2180      C2181   1.404       .  A
C2180      H2185   1.084       .  S
C2181      C2182   1.408       .  A
C2182      F2186   1.358       .  S
C2183      C2188   1.403       .  A
C2183      C2192   1.408       .  A
C2188      C2189   1.394       .  A
C2188      F2193   1.358       .  S
C2189      C2190   1.407       .  A
C2189      H2194   1.083       .  S
C2190      C2191   1.406       .  A
C2191      C2192   1.402       .  A
C2191      F2195   1.357       .  S
C2192      H2196   1.083       .  S
C2197      C2198   1.400       .  A
C2197      C2202   1.396       .  A
C2197      H2207   1.085       .  S
C2198      C2203   1.471   1_655  S
C2198      C2199   1.402       .  A
C2199      C2200   1.397       .  A
C2199      F2204   1.358       .  S
C2200      C2201   1.408       .  A
C2200      H2205   1.084       .  S
C2201      C2202   1.411       .  A
C2202      F2206   1.357       .  S
C2203      C2208   1.402       .  A
C2203      C2212   1.402       .  A
C2208      C2209   1.395       .  A
C2208      F2213   1.357       .  S
C2209      C2210   1.406       .  A
C2209      H2214   1.083       .  S
C2210      C2211   1.409       .  A
C2211      C2212   1.397       .  A
C2211      F2215   1.358       .  S
C2212      H2216   1.083       .  S
C2217      C2218   1.403       .  A
C2217      C2222   1.399       .  A
C2217      H2227   1.085       .  S
C2218      C2223   1.477       .  S
C2218      C2219   1.404       .  A
C2219      C2220   1.395       .  A
C2219      F2224   1.358       .  S
C2220      C2221   1.407       .  A
C2220      H2225   1.085       .  S
C2221      C2222   1.410       .  A
C2222      F2226   1.357       .  S
C2223      C2228   1.405       .  A
C2223      C2232   1.402       .  A
C2228      C2229   1.397       .  A
C2228      F2233   1.357       .  S
C2229      C2230   1.404       .  A
C2229      H2234   1.084       .  S
C2230      C2231   1.410       .  A
C2231      C2232   1.397       .  A
C2231      F2235   1.358       .  S
C2232      H2236   1.084       .  S
C2237      C2238   1.403       .  A
C2237      C2242   1.398       .  A
C2237      H2247   1.084       .  S
C2238      C2243   1.485       .  S
C2238      C2239   1.407       .  A
C2239      C2240   1.399       .  A
C2239      F2244   1.357       .  S
C2240      C2241   1.407       .  A
C2240      H2245   1.084       .  S
C2241      C2242   1.412       .  A
C2242      F2246   1.357       .  S
C2243      C2248   1.410       .  A
C2243      C2252   1.401       .  A
C2248      C2249   1.403       .  A
C2248      F2253   1.357       .  S
C2249      C2250   1.404       .  A
C2249      H2254   1.085       .  S
C2250      C2251   1.409       .  A
C2251      C2252   1.394       .  A
C2251      F2255   1.358       .  S
C2252      H2256   1.084       .  S
C2257      C2258   1.398       .  A
C2257      C2262   1.395       .  A
C2257      H2267   1.085       .  S
C2258      C2263   1.472       .  S
C2258      C2259   1.404       .  A
C2259      C2260   1.399       .  A
C2259      F2264   1.357       .  S
C2260      C2261   1.406       .  A
C2260      H2265   1.084       .  S
C2261      C2262   1.412       .  A
C2262      F2266   1.358       .  S
C2263      C2268   1.402       .  A
C2263      C2272   1.400       .  A
C2268      C2269   1.396       .  A
C2268      F2273   1.358       .  S
C2269      C2270   1.408       .  A
C2269      H2274   1.085       .  S
C2270      C2271   1.411       .  A
C2271      C2272   1.398       .  A
C2271      F2275   1.357       .  S
C2272      H2276   1.085       .  S
C2277      C2278   1.406       .  A
C2277      C2282   1.397       .  A
C2277      H2287   1.083       .  S
C2278      C2283   1.487       .  S
C2278      C2279   1.408       .  A
C2279      C2280   1.401       .  A
C2279      F2284   1.357       .  S
C2280      C2281   1.406       .  A
C2280      H2285   1.084       .  S
C2281      C2282   1.405       .  A
C2282      F2286   1.357       .  S
C2283      C2288   1.409       .  A
C2283      C2292   1.402       .  A
C2288      C2289   1.404       .  A
C2288      F2293   1.358       .  S
C2289      C2290   1.409       .  A
C2289      H2294   1.084       .  S
C2290      C2291   1.411       .  A
C2291      C2292   1.394       .  A
C2291      F2295   1.357       .  S
C2292      H2296   1.084       .  S
C2297      C2298   1.402       .  A
C2297      C2302   1.397       .  A
C2297      H2307   1.085       .  S
C2298      C2303   1.482       .  S
C2298      C2299   1.405       .  A
C2299      C2300   1.401       .  A
C2299      F2304   1.357       .  S
C2300      C2301   1.409       .  A
C2300      H2305   1.085       .  S
C2301      C2302   1.411       .  A
C2302      F2306   1.357       .  S
C2303      C2308   1.405       .  A
C2303      C2312   1.403       .  A
C2308      C2309   1.399       .  A
C2308      F2313   1.358       .  S
C2309      C2310   1.407       .  A
C2309      H2314   1.085       .  S
C2310      C2311   1.410       .  A
C2311      C2312   1.400       .  A
C2311      F2315   1.357       .  S
C2312      H2316   1.085       .  S
C2317      C2318   1.400       .  A
C2317      C2322   1.393       .  A
C2317      H2327   1.085       .  S
C2318      C2323   1.476   1_655  S
C2318      C2319   1.405       .  A
C2319      C2320   1.401       .  A
C2319      F2324   1.358       .  S
C2320      C2321   1.409       .  A
C2320      H2325   1.085       .  S
C2321      C2322   1.409       .  A
C2322      F2326   1.357       .  S
C2323      C2328   1.405       .  A
C2323      C2332   1.401       .  A
C2328      C2329   1.401       .  A
C2328      F2333   1.357       .  S
C2329      C2330   1.408       .  A
C2329      H2334   1.083       .  S
C2330      C2331   1.410       .  A
C2331      C2332   1.393       .  A
C2331      F2335   1.358       .  S
C2332      H2336   1.084       .  S
C2337      C2338   1.408       .  A
C2337      C2342   1.404       .  A
C2337      H2347   1.083   1_565  S
C2338      C2343   1.483   1_565  S
C2338      C2339   1.401       .  A
C2339      C2340   1.393       .  A
C2339      F2344   1.358       .  S
C2340      C2341   1.410       .  A
C2340      H2345   1.083       .  S
C2341      C2342   1.408       .  A
C2342      F2346   1.357       .  S
C2343      C2348   1.404       .  A
C2343      C2352   1.406       .  A
C2348      C2349   1.397       .  A
C2348      F2353   1.357       .  S
C2349      C2350   1.406       .  A
C2349      H2354   1.085       .  S
C2350      C2351   1.408       .  A
C2351      C2352   1.400       .  A
C2351      F2355   1.358       .  S
C2352      H2356   1.084       .  S
C2357      C2358   1.403       .  A
C2357      C2362   1.393       .  A
C2357      H2367   1.084       .  S
C2358      C2363   1.481       .  S
C2358      C2359   1.408       .  A
C2359      C2360   1.398       .  A
C2359      F2364   1.357   1_554  S
C2360      C2361   1.405       .  A
C2360      H2365   1.084   1_554  S
C2361      C2362   1.407       .  A
C2362      F2366   1.358       .  S
C2363      C2368   1.407       .  A
C2363      C2372   1.404       .  A
C2368      C2369   1.398       .  A
C2368      F2373   1.357       .  S
C2369      C2370   1.405       .  A
C2369      H2374   1.083       .  S
C2370      C2371   1.407       .  A
C2371      C2372   1.393       .  A
C2371      F2375   1.358       .  S
C2372      H2376   1.083       .  S
C2377      C2378   1.407       .  A
C2377      C2382   1.398       .  A
C2377      H2387   1.083       .  S
C2378      C2383   1.486   1_655  S
C2378      C2379   1.408       .  A
C2379      C2380   1.393       .  A
C2379      F2384   1.357   1_554  S
C2380      C2381   1.403       .  A
C2380      H2385   1.084       .  S
C2381      C2382   1.406       .  A
C2382      F2386   1.358       .  S
C2383      C2388   1.408       .  A
C2383      C2392   1.405       .  A
C2388      C2389   1.396       .  A
C2388      F2393   1.357       .  S
C2389      C2390   1.405       .  A
C2389      H2394   1.084       .  S
C2390      C2391   1.409       .  A
C2391      C2392   1.395       .  A
C2391      F2395   1.358       .  S
C2392      H2396   1.084       .  S
C2397      C2398   1.402       .  A
C2397      C2402   1.396       .  A
C2397      H2407   1.084       .  S
C2398      C2403   1.477       .  S
C2398      C2399   1.404       .  A
C2399      C2400   1.396       .  A
C2399      F2404   1.357       .  S
C2400      C2401   1.406       .  A
C2400      H2405   1.084       .  S
C2401      C2402   1.411       .  A
C2402      F2406   1.358       .  S
C2403      C2408   1.405       .  A
C2403      C2412   1.401       .  A
C2408      C2409   1.398       .  A
C2408      F2413   1.357       .  S
C2409      C2410   1.406       .  A
C2409      H2414   1.083       .  S
C2410      C2411   1.411       .  A
C2411      C2412   1.396       .  A
C2411      F2415   1.358       .  S
C2412      H2416   1.084       .  S
C2417      C2418   1.408       .  A
C2417      C2422   1.400       .  A
C2417      H2427   1.084       .  S
C2418      C2423   1.484       .  S
C2418      C2419   1.407       .  A
C2419      C2420   1.391       .  A
C2419      F2424   1.357       .  S
C2420      C2421   1.403       .  A
C2420      H2425   1.085       .  S
C2421      C2422   1.406       .  A
C2422      F2426   1.358       .  S
C2423      C2428   1.408       .  A
C2423      C2432   1.406       .  A
C2428      C2429   1.397       .  A
C2428      F2433   1.358       .  S
C2429      C2430   1.406       .  A
C2429      H2434   1.085       .  S
C2430      C2431   1.403       .  A
C2431      C2432   1.395       .  A
C2431      F2435   1.357       .  S
C2432      H2436   1.083       .  S
C2437      C2438   1.398   1_556  A
C2437      C2442   1.396       .  A
C2437      H2447   1.085       .  S
C2438      C2443   1.473   1_564  S
C2438      C2439   1.403       .  A
C2439      C2440   1.400       .  A
C2439      F2444   1.357       .  S
C2440      C2441   1.407       .  A
C2440      H2445   1.084       .  S
C2441      C2442   1.415   1_554  A
C2442      F2446   1.358       .  S
C2443      C2448   1.403       .  A
C2443      C2452   1.400       .  A
C2448      C2449   1.398       .  A
C2448      F2453   1.357       .  S
C2449      C2450   1.406       .  A
C2449      H2454   1.083       .  S
C2450      C2451   1.412       .  A
C2451      C2452   1.398       .  A
C2451      F2455   1.358       .  S
C2452      H2456   1.083   1_556  S
C2457      C2458   1.404       .  A
C2457      C2462   1.396       .  A
C2457      H2467   1.084       .  S
C2458      C2463   1.481       .  S
C2458      C2459   1.406       .  A
C2459      C2460   1.398       .  A
C2459      F2464   1.357       .  S
C2460      C2461   1.405       .  A
C2460      H2465   1.084       .  S
C2461      C2462   1.408       .  A
C2462      F2466   1.358       .  S
C2463      C2468   1.405       .  A
C2463      C2472   1.404       .  A
C2468      C2469   1.396       .  A
C2468      F2473   1.358       .  S
C2469      C2470   1.408       .  A
C2469      H2474   1.084       .  S
C2470      C2471   1.409       .  A
C2471      C2472   1.398       .  A
C2471      F2475   1.357       .  S
C2472      H2476   1.084       .  S
C2477      C2478   1.406       .  A
C2477      C2482   1.397       .  A
C2477      H2487   1.083       .  S
C2478      C2483   1.496       .  S
C2478      C2479   1.411       .  A
C2479      C2480   1.404       .  A
C2479      F2484   1.357       .  S
C2480      C2481   1.408       .  A
C2480      H2485   1.083       .  S
C2481      C2482   1.410       .  A
C2482      F2486   1.357       .  S
C2483      C2488   1.411       .  A
C2483      C2492   1.408       .  A
C2488      C2489   1.399       .  A
C2488      F2493   1.358       .  S
C2489      C2490   1.404       .  A
C2489      H2494   1.084       .  S
C2490      C2491   1.408       .  A
C2491      C2492   1.402       .  A
C2491      F2495   1.357       .  S
C2492      H2496   1.083       .  S
C2497      C2498   1.400       .  A
C2497      C2502   1.394       .  A
C2497      H2507   1.085       .  S
C2498      C2503   1.482   1_565  S
C2498      C2499   1.408       .  A
C2499      C2500   1.402       .  A
C2499      F2504   1.357       .  S
C2500      C2501   1.407       .  A
C2500      H2505   1.084       .  S
C2501      C2502   1.414       .  A
C2502      F2506   1.358       .  S
C2503      C2508   1.409       .  A
C2503      C2512   1.402       .  A
C2508      C2509   1.400       .  A
C2508      F2513   1.357   1_545  S
C2509      C2510   1.401       .  A
C2509      H2514   1.084       .  S
C2510      C2511   1.408       .  A
C2511      C2512   1.397       .  A
C2511      F2515   1.358       .  S
C2512      H2516   1.084       .  S
C2517      C2518   1.407       .  A
C2517      C2522   1.397       .  A
C2517      H2527   1.083       .  S
C2518      C2523   1.489       .  S
C2518      C2519   1.409       .  A
C2519      C2520   1.400       .  A
C2519      F2524   1.357       .  S
C2520      C2521   1.406       .  A
C2520      H2525   1.083       .  S
C2521      C2522   1.406       .  A
C2522      F2526   1.357       .  S
C2523      C2528   1.410       .  A
C2523      C2532   1.403       .  A
C2528      C2529   1.402       .  A
C2528      F2533   1.357       .  S
C2529      C2530   1.407       .  A
C2529      H2534   1.084       .  S
C2530      C2531   1.411       .  A
C2531      C2532   1.395       .  A
C2531      F2535   1.357       .  S
C2532      H2536   1.084       .  S
C2537      C2538   1.403       .  A
C2537      C2542   1.396       .  A
C2537      H2547   1.084       .  S
C2538      C2543   1.481       .  S
C2538      C2539   1.407       .  A
C2539      C2540   1.396       .  A
C2539      F2544   1.358       .  S
C2540      C2541   1.404       .  A
C2540      H2545   1.084       .  S
C2541      C2542   1.408       .  A
C2542      F2546   1.357       .  S
C2543      C2548   1.407       .  A
C2543      C2552   1.402       .  A
C2548      C2549   1.398       .  A
C2548      F2553   1.357       .  S
C2549      C2550   1.406       .  A
C2549      H2554   1.084       .  S
C2550      C2551   1.410       .  A
C2551      C2552   1.395       .  A
C2551      F2555   1.358       .  S
C2552      H2556   1.085       .  S
C2557      C2558   1.408       .  A
C2557      C2562   1.403       .  A
C2557      H2567   1.083       .  S
C2558      C2563   1.497       .  S
C2558      C2559   1.409       .  A
C2559      C2560   1.401       .  A
C2559      F2564   1.358       .  S
C2560      C2561   1.408       .  A
C2560      H2565   1.083       .  S
C2561      C2562   1.409       .  A
C2562      F2566   1.357       .  S
C2563      C2568   1.410       .  A
C2563      C2572   1.407       .  A
C2568      C2569   1.401       .  A
C2568      F2573   1.357       .  S
C2569      C2570   1.405       .  A
C2569      H2574   1.083       .  S
C2570      C2571   1.411       .  A
C2571      C2572   1.402       .  A
C2571      F2575   1.358       .  S
C2572      H2576   1.083       .  S
C2577      C2578   1.399       .  A
C2577      C2582   1.392   1_556  A
C2577      H2587   1.085       .  S
C2578      C2583   1.477       .  S
C2578      C2579   1.407       .  A
C2579      C2580   1.401   1_556  A
C2579      F2584   1.357       .  S
C2580      C2581   1.405       .  A
C2580      H2585   1.085       .  S
C2581      C2582   1.412       .  A
C2582      F2586   1.358       .  S
C2583      C2588   1.404       .  A
C2583      C2592   1.401       .  A
C2588      C2589   1.400       .  A
C2588      F2593   1.358       .  S
C2589      C2590   1.409       .  A
C2589      H2594   1.085       .  S
C2590      C2591   1.410       .  A
C2591      C2592   1.394       .  A
C2591      F2595   1.357       .  S
C2592      H2596   1.086       .  S
C2597      C2598   1.403       .  A
C2597      C2602   1.397       .  A
C2597      H2607   1.085       .  S
C2598      C2603   1.477       .  S
C2598      C2599   1.403       .  A
C2599      C2600   1.397       .  A
C2599      F2604   1.358       .  S
C2600      C2601   1.408       .  A
C2600      H2605   1.085       .  S
C2601      C2602   1.406       .  A
C2602      F2606   1.357       .  S
C2603      C2608   1.402       .  A
C2603      C2612   1.403       .  A
C2608      C2609   1.394       .  A
C2608      F2613   1.358       .  S
C2609      C2610   1.408       .  A
C2609      H2614   1.085       .  S
C2610      C2611   1.410       .  A
C2611      C2612   1.400       .  A
C2611      F2615   1.357       .  S
C2612      H2616   1.085       .  S
C2617      C2618   1.399       .  A
C2617      C2622   1.394       .  A
C2617      H2627   1.083       .  S
C2618      C2623   1.482   1_545  S
C2618      C2619   1.408       .  A
C2619      C2620   1.404       .  A
C2619      F2624   1.357       .  S
C2620      C2621   1.406       .  A
C2620      H2625   1.083       .  S
C2621      C2622   1.414       .  A
C2622      F2626   1.358       .  S
C2623      C2628   1.406       .  A
C2623      C2632   1.403       .  A
C2628      C2629   1.400       .  A
C2628      F2633   1.357       .  S
C2629      C2630   1.405       .  A
C2629      H2634   1.084       .  S
C2630      C2631   1.410       .  A
C2631      C2632   1.399       .  A
C2631      F2635   1.358       .  S
C2632      H2636   1.084       .  S
C2637      C2638   1.399       .  A
C2637      C2642   1.396       .  A
C2637      H2647   1.084       .  S
C2638      C2643   1.479       .  S
C2638      C2639   1.407       .  A
C2639      C2640   1.400       .  A
C2639      F2644   1.357       .  S
C2640      C2641   1.405       .  A
C2640      H2645   1.083       .  S
C2641      C2642   1.415       .  A
C2642      F2646   1.358       .  S
C2643      C2648   1.402       .  A
C2643      C2652   1.405       .  A
C2648      C2649   1.392       .  A
C2648      F2653   1.357       .  S
C2649      C2650   1.407       .  A
C2649      H2654   1.084       .  S
C2650      C2651   1.410       .  A
C2651      C2652   1.402       .  A
C2651      F2655   1.358       .  S
C2652      H2656   1.085       .  S
