geometry optimzed in LAMMPS
_audit_creation_date              2020-12-01 
_audit_creation_method            'lammps2cif' 
_symmetry_space_group_name_H-M    'P1' 
_symmetry_Int_Tables_number       1 
_symmetry_cell_setting            triclinic 
loop_ 
_symmetry_equiv_pos_as_xyz 
  x,y,z 
_cell_length_a                    44.46681914 
_cell_length_b                    43.60639007735789 
_cell_length_c                    33.925047118080165 
_cell_angle_alpha                 90.1287049608907 
_cell_angle_beta                  90.31072146604555 
_cell_angle_gamma                 88.66969263681901 
loop_ 
_atom_site_label 
_atom_site_type_symbol 
_atom_site_fract_x 
_atom_site_fract_y 
_atom_site_fract_z 
_atom_site_charge 
O1          O  0.95377211  0.94511443  0.20955112    -0.80700
O2          O  0.04562125  0.05490596  0.18075767    -0.65400
O3          O  0.00613021  0.97821963  0.19706738    -1.12000
C4          C  0.01456065  0.01009084  0.33231146     1.06200
O5          O  0.07910616  0.03968272  0.22516854    -0.78600
O6          O  0.07448389  0.99446390  0.27820430    -0.66200
Ni7        Ni  0.96955609  0.97086460  0.16923551     1.34900
C8          C  0.06647550  0.96720815  0.27176216     0.84900
O9          O  0.02734976  0.01021043  0.13134055    -0.79100
O10         O  0.98076418  0.99343168  0.12332066    -0.89400
C11         C  0.07138584  0.05726064  0.19691876     0.84500
O12         O  0.95074747  0.00626945  0.19179295    -0.67600
O13         O  0.03431482  0.02867651  0.32040438    -0.86900
C14         C  0.95940885  0.03363939  0.18750073     0.85300
C15         C  0.00533600  0.00287759  0.10947980     1.06900
H16         H  0.00592748  0.03781803  0.24794469     0.38700
O17         O  0.02101457  0.02206540  0.24273999    -1.09500
O18         O  0.04028860  0.96051052  0.25984243    -0.66200
Ni19       Ni  0.00318997  0.98389823  0.25350376     1.26300
O20         O  0.98677098  0.04016868  0.18033036    -0.66400
O21         O  0.00118835  0.99116766  0.30969371    -0.78700
C22         C  0.96204966  0.93507345  0.24307006     0.84700
O23         O  0.98360766  0.94617668  0.26259861    -0.65900
Ni24       Ni  0.05550280  0.03372481  0.27179476     1.27400
Ni25       Ni  0.02456786  0.01693517  0.18715133     1.26100
H26         H  0.02034563  0.96181877  0.19093293     0.39300
O27         O  0.93357001  0.96832219  0.72278564    -0.80700
O28         O  0.03151220  0.06212207  0.68062168    -0.65400
O29         O  0.99065066  0.98697711  0.69860311    -1.12000
C30         C  0.01415695  0.01075928  0.83208377     1.06200
O31         O  0.06880293  0.04263324  0.71630356    -0.78600
O32         O  0.06677500  0.99419162  0.76441482    -0.66200
Ni33       Ni  0.95342705  0.97823118  0.67385375     1.34900
C34         C  0.05605014  0.96770031  0.76050470     0.84900
O35         O  0.00680805  0.02094321  0.63152477    -0.79100
O36         O  0.97028264  0.98662040  0.62268647    -0.89400
C37         C  0.05895751  0.06200087  0.69125645     0.84500
O38         O  0.93562956  0.01835700  0.67669070    -0.67600
O39         O  0.03464932  0.02727707  0.81759604    -0.86900
C40         C  0.94523890  0.04514620  0.68280030     0.85300
C41         C  0.99051095  0.00420914  0.60950896     1.06900
H42         H  0.99875615  0.04382468  0.75292057     0.38700
O43         O  0.01194191  0.02734883  0.74392333    -1.09500
O44         O  0.02815948  0.96313699  0.75523735    -0.66200
Ni45       Ni  0.99258643  0.98978957  0.75497783     1.26300
O46         O  0.97299136  0.05067876  0.68844341    -0.66400
O47         O  0.99599799  0.99479571  0.81145083    -0.78700
C48         C  0.94353006  0.95106122  0.75037603     0.84700
O49         O  0.97033948  0.95314238  0.76306465    -0.65900
Ni50       Ni  0.05026216  0.03468142  0.76624846     1.27400
Ni51       Ni  0.00950277  0.02508297  0.68789191     1.26100
H52         H  0.00449897  0.97090378  0.69018643     0.39300
O53         O  0.22479763  0.32526376  0.12747077    -0.80700
O54         O  0.31582457  0.22250876  0.08187689    -0.65400
O55         O  0.24245018  0.26776553  0.09960304    -1.12000
C56         C  0.26334174  0.24362764  0.23464495     1.06200
O57         O  0.30000954  0.18587924  0.12117320    -0.78600
O58         O  0.25181107  0.18942618  0.16840687    -0.66200
Ni59       Ni  0.23516498  0.30709529  0.07743067     1.34900
C60         C  0.22557464  0.19956813  0.16004053     0.84900
O61         O  0.27465741  0.24946069  0.03299675    -0.79100
O62         O  0.24430667  0.29137572  0.02575089    -0.89400
C63         C  0.31682887  0.19481907  0.09344796     0.84500
O64         O  0.27453564  0.32315776  0.08259950    -0.67600
O65         O  0.28264584  0.22412233  0.22134547    -0.86900
C66         C  0.30063455  0.31101302  0.08582636     0.85300
C67         C  0.25952926  0.26866231  0.01180516     1.06900
H68         H  0.29697981  0.25879816  0.15475844     0.38700
O69         O  0.28174660  0.24489571  0.14584932    -1.09500
O70         O  0.21978670  0.22771604  0.15245669    -0.66200
Ni71       Ni  0.24359232  0.26446094  0.15577249     1.26300
O72         O  0.30520482  0.28218663  0.08906141    -0.66400
O73         O  0.24620023  0.26025517  0.21253501    -0.78700
C74         C  0.20545215  0.31510322  0.15132167     0.84700
O75         O  0.20642412  0.28720016  0.16205975    -0.65900
Ni76       Ni  0.29084510  0.20663013  0.17024300     1.27400
Ni77       Ni  0.27955478  0.24669156  0.08939081     1.26100
H78         H  0.22662393  0.25499375  0.08967948     0.39300
O79         O  0.20653663  0.32107392  0.62210219    -0.80700
O80         O  0.30168930  0.21967913  0.58121914    -0.65400
O81         O  0.22728633  0.26151599  0.60179904    -1.12000
C82         C  0.24739524  0.24385905  0.73524570     1.06200
O83         O  0.30356645  0.18878243  0.63364491    -0.78600
O84         O  0.24304245  0.18740136  0.65261244    -0.66200
Ni85       Ni  0.21692215  0.29871582  0.57464356     1.34900
C86         C  0.21618782  0.19796115  0.65556683     0.84900
O87         O  0.25798050  0.24040317  0.53453888    -0.79100
O88         O  0.22543690  0.27987053  0.52444416    -0.89400
C89         C  0.31311106  0.19721338  0.60013171     0.84500
O90         O  0.25556187  0.31709531  0.57570052    -0.67600
O91         O  0.25623864  0.21800028  0.72161663    -0.86900
C92         C  0.28205392  0.30608950  0.57996910     0.85300
C93         C  0.24198835  0.25765391  0.51195760     1.06900
H94         H  0.28650806  0.25713102  0.65365418     0.38700
O95         O  0.27050546  0.24334368  0.64714685    -1.09500
O96         O  0.21012462  0.22618367  0.66294492    -0.66200
Ni97       Ni  0.23273610  0.26365017  0.65748763     1.26300
O98         O  0.28780183  0.27782856  0.58595142    -0.66400
O99         O  0.23990114  0.26612553  0.71301475    -0.78700
C100        C  0.19182363  0.31214348  0.65184824     0.84700
O101        O  0.19537136  0.28528321  0.66540691    -0.65900
Ni102      Ni  0.27805405  0.20560942  0.67470965     1.27400
Ni103      Ni  0.26473651  0.24129783  0.59072374     1.26100
H104        H  0.21154732  0.24731861  0.59578570     0.39300
O105        O  0.29747636  0.67973224  0.37010422    -0.80700
O106        O  0.20964221  0.78789651  0.33360248    -0.65400
O107        O  0.28194179  0.73992321  0.34752146    -1.12000
C108        C  0.26135649  0.76010513  0.48337050     1.06200
O109        O  0.22941596  0.82326589  0.37185725    -0.78600
O110        O  0.27810226  0.81625401  0.41879525    -0.66200
Ni111      Ni  0.28769270  0.70149887  0.32177865     1.34900
C112        C  0.30392806  0.80436807  0.41234939     0.84900
O113        O  0.24747253  0.76048199  0.28208744    -0.79100
O114        O  0.27875117  0.72001497  0.27113196    -0.89400
C115        C  0.21006439  0.81527651  0.34630419     0.84500
O116        O  0.24774386  0.68703401  0.32546755    -0.67600
O117        O  0.24557473  0.78292093  0.47070660    -0.86900
C118        C  0.22216020  0.69924707  0.33234334     0.85300
C119        C  0.26212743  0.74244638  0.25900102     1.06900
H120        H  0.22824541  0.75077301  0.40395944     0.38700
O121        O  0.24435838  0.76352113  0.39514039    -1.09500
O122        O  0.30795895  0.77583748  0.40477862    -0.66200
Ni123      Ni  0.28093059  0.74088836  0.40411559     1.26300
O124        O  0.21830011  0.72781779  0.33908368    -0.66400
O125        O  0.27722738  0.74240416  0.46105365    -0.78700
C126        C  0.31578199  0.68746171  0.39718197     0.84700
O127        O  0.31622750  0.71491458  0.40988690    -0.65900
Ni128      Ni  0.23804751  0.80182394  0.42043046     1.27400
Ni129      Ni  0.24510301  0.76245630  0.33883260     1.26100
H130        H  0.29805469  0.75269480  0.33878732     0.39300
O131        O  0.28572221  0.67924009  0.87609183    -0.80700
O132        O  0.19219210  0.78162602  0.82752462    -0.65400
O133        O  0.26589708  0.73712458  0.84769879    -1.12000
C134        C  0.24576511  0.76427596  0.98130073     1.06200
O135        O  0.20582429  0.81983470  0.86646128    -0.78600
O136        O  0.25664772  0.81755451  0.90901750    -0.66200
Ni137      Ni  0.27305990  0.69707950  0.82645658     1.34900
C138        C  0.28273224  0.80611541  0.90320474     0.84900
O139        O  0.23302108  0.75393927  0.78036344    -0.79100
O140        O  0.26210219  0.71120240  0.77449325    -0.89400
C141        C  0.19009899  0.80949982  0.83815828     0.84500
O142        O  0.23414023  0.68159735  0.83562241    -0.67600
O143        O  0.22857062  0.78565053  0.96765341    -0.86900
C144        C  0.20821334  0.69384069  0.83950850     0.85300
C145        C  0.24735843  0.73389812  0.75976788     1.06900
H146        H  0.21076590  0.74829531  0.90214694     0.38700
O147        O  0.22634441  0.76154906  0.89277206    -1.09500
O148        O  0.28823119  0.77741604  0.90050064    -0.66200
Ni149      Ni  0.26413031  0.74115572  0.90360009     1.26300
O150        O  0.20330367  0.72269332  0.83887287    -0.66400
O151        O  0.26089756  0.74566266  0.95965631    -0.78700
C152        C  0.30381476  0.69055027  0.90096160     0.84700
O153        O  0.30131644  0.71847295  0.91149281    -0.65900
Ni154      Ni  0.21791496  0.80079785  0.91576347     1.27400
Ni155      Ni  0.22862152  0.75814649  0.83652507     1.26100
H156        H  0.28179027  0.74970215  0.83789847     0.39300
O157        O  0.56743391  0.03015789  0.96190627    -0.80700
O158        O  0.46751616  0.93987104  0.92313778    -0.65400
O159        O  0.50907797  0.01411140  0.94122033    -1.12000
C160        C  0.49101474  0.98733007  0.07510590     1.06200
O161        O  0.43159726  0.96072821  0.95983426    -0.78600
O162        O  0.43531015  0.00772190  0.01119287    -0.66200
Ni163      Ni  0.54471998  0.02360544  0.91401909     1.34900
C164        C  0.44674284  0.03395235  0.00810332     0.84900
O165        O  0.49168655  0.98036519  0.87384668    -0.79100
O166        O  0.52456683  0.01809487  0.86402667    -0.89400
C167        C  0.44025551  0.94127903  0.93407258     0.84500
O168        O  0.56214704  0.98330349  0.91112585    -0.67600
O169        O  0.46909737  0.97222290  0.06098667    -0.86900
C170        C  0.55356908  0.95643743  0.91897646     0.85300
C171        C  0.50551751  0.99879331  0.85153156     1.06900
H172        H  0.50207687  0.95650291  0.99439411     0.38700
O173        O  0.48904631  0.97344157  0.98630297    -1.09500
O174        O  0.47461918  0.03759956  0.00148835    -0.66200
Ni175      Ni  0.50958826  0.01006704  0.99761246     1.26300
O176        O  0.52667118  0.95071290  0.92918572    -0.66400
O177        O  0.50868439  0.00344785  0.05414402    -0.78700
C178        C  0.55963202  0.04667560  0.99124065     0.84700
O179        O  0.53331116  0.04569794  0.00552922    -0.65900
Ni180      Ni  0.45135841  0.96678129  0.00983431     1.27400
Ni181      Ni  0.49008671  0.97626004  0.93026150     1.26100
H182        H  0.49472089  0.03020284  0.93438486     0.39300
O183        O  0.57689600  0.95782975  0.46977765    -0.80700
O184        O  0.47239608  0.04659392  0.50268666    -0.65400
O185        O  0.51681511  0.97219319  0.48641622    -1.12000
C186        C  0.49811855  0.98594892  0.35292931     1.06200
O187        O  0.43937050  0.04044070  0.45358047    -0.78600
O188        O  0.44530889  0.97882644  0.43716110    -0.66200
Ni189      Ni  0.55229880  0.96321950  0.51596799     1.34900
C190        C  0.45710910  0.95233647  0.43178075     0.84900
O191        O  0.49593931  0.00537861  0.55229913    -0.79100
O192        O  0.53009482  0.96753987  0.56424307    -0.89400
C193        C  0.44800954  0.05375812  0.48503303     0.84500
O194        O  0.56718598  0.00379995  0.52107063    -0.67600
O195        O  0.47226577  0.99298537  0.36679031    -0.86900
C196        C  0.55748111  0.03028948  0.51115441     0.85300
C197        C  0.50965300  0.98660720  0.57544468     1.06900
H198        H  0.50779033  0.03042993  0.43110583     0.38700
O199        O  0.49615263  0.01308000  0.43907779    -1.09500
O200        O  0.48516967  0.94850050  0.42430325    -0.66200
Ni201      Ni  0.51938280  0.97612916  0.43057605     1.26300
O202        O  0.53088325  0.03530302  0.49819140    -0.66400
O203        O  0.52123327  0.98231479  0.37474343    -0.78700
C204        C  0.57111148  0.94036105  0.44082860     0.84700
O205        O  0.54514454  0.94050859  0.42504760    -0.65900
Ni206      Ni  0.45819097  0.01549058  0.41280012     1.27400
Ni207      Ni  0.49565666  0.00985018  0.49566048     1.26100
H208        H  0.50317071  0.95593624  0.49237519     0.39300
O209        O  0.81408124  0.80600836  0.37629712    -0.80700
O210        O  0.70797269  0.71517087  0.40834386    -0.65400
O211        O  0.78491962  0.75078878  0.39314265    -1.12000
C212        C  0.76099497  0.73474557  0.25696922     1.06200
O213        O  0.71839925  0.67749969  0.36633389    -0.78600
O214        O  0.77058522  0.67589716  0.32533849    -0.66200
Ni215      Ni  0.79484185  0.78784832  0.42066556     1.34900
C216        C  0.79742567  0.68482525  0.32946774     0.84900
O217        O  0.74963279  0.73370031  0.45880898    -0.79100
O218        O  0.77835787  0.77427865  0.46958763    -0.89400
C219        C  0.70234602  0.68913397  0.39366753     0.84500
O220        O  0.75855306  0.80983053  0.40805584    -0.67600
O221        O  0.74445678  0.71349259  0.26965690    -0.86900
C222        C  0.73168149  0.80095290  0.40433215     0.85300
C223        C  0.76195156  0.75284533  0.48180152     1.06900
H224        H  0.72820637  0.74938486  0.33804738     0.38700
O225        O  0.74325477  0.73425583  0.34585514    -1.09500
O226        O  0.80403128  0.71295701  0.33343936    -0.66200
Ni227      Ni  0.78155397  0.75157143  0.33630008     1.26300
O228        O  0.72452924  0.77283093  0.40350229    -0.66400
O229        O  0.77642791  0.75197877  0.27950987    -0.78700
C230        C  0.82775351  0.79474704  0.34669756     0.84700
O231        O  0.81944959  0.77053889  0.32934254    -0.65900
Ni232      Ni  0.73273271  0.69720405  0.31949170     1.27400
Ni233      Ni  0.74612911  0.73382492  0.40220125     1.26100
H234        H  0.79990745  0.73549083  0.40069603     0.39300
O235        O  0.78591506  0.81787387  0.86328855    -0.80700
O236        O  0.69726994  0.71607538  0.91404164    -0.65400
O237        O  0.76919564  0.76024657  0.89185945    -1.12000
C238        C  0.74333244  0.73629315  0.75870610     1.03000
O239        O  0.71316236  0.67882367  0.87447017    -0.78600
O240        O  0.76003808  0.68155034  0.82482422    -0.66200
Ni241      Ni  0.77617427  0.79982328  0.91346941     1.34900
C242        C  0.78627628  0.69166357  0.83022623     0.84900
O243        O  0.73921811  0.74320435  0.96030590    -0.79100
O244        O  0.76817174  0.78489350  0.96560065    -0.89400
C245        C  0.69610726  0.68837869  0.90210403     0.84500
O246        O  0.73630611  0.81654710  0.90844723    -0.67600
O247        O  0.72629202  0.71600085  0.77308088    -0.86900
C248        C  0.71040880  0.80497711  0.90665534     0.85300
C249        C  0.75411509  0.76253393  0.98052591     1.06900
H250        H  0.71274398  0.75145362  0.84005881     0.38700
O251        O  0.72883618  0.73755128  0.84820609    -1.09500
O252        O  0.79130426  0.71992755  0.83651663    -0.66200
Ni253      Ni  0.76583902  0.75686947  0.83586595     1.26300
O254        O  0.70634944  0.77611648  0.90535202    -0.66400
O255        O  0.76044551  0.75313930  0.77958974    -0.78700
C256        C  0.80402801  0.80652499  0.83800465     0.84700
O257        O  0.80217889  0.77878011  0.82700680    -0.65900
Ni258      Ni  0.72032829  0.69904521  0.82474311     1.27400
Ni259      Ni  0.73279382  0.73984951  0.90437035     1.26100
H260        H  0.78573182  0.74719100  0.90065363     0.39300
O261        O  0.73039790  0.16714656  0.10356751    -0.80700
O262        O  0.81848786  0.26932482  0.15262669    -0.65400
O263        O  0.74692929  0.22632828  0.12806949    -1.12000
C264        C  0.76725493  0.24664934  0.99513567     1.06200
O265        O  0.81722042  0.30171410  0.10166386    -0.78600
O266        O  0.75915651  0.30260675  0.07517951    -0.66200
Ni267      Ni  0.73781688  0.18842968  0.15272846     1.34900
C268        C  0.73279156  0.29193441  0.07344521     0.84900
O269        O  0.77492550  0.24623852  0.19710538    -0.79100
O270        O  0.74356478  0.20665383  0.20374425    -0.89400
C271        C  0.82728454  0.29322738  0.13510266     0.84500
O272        O  0.77735839  0.17076000  0.15451331    -0.67600
O273        O  0.77829013  0.27110668  0.00885438    -0.86900
C274        C  0.80349896  0.18166651  0.15276906     0.85300
C275        C  0.75854695  0.22879787  0.21789781     1.06900
H276        H  0.80583985  0.23196108  0.07839455     0.38700
O277        O  0.78930986  0.24587063  0.08466979    -1.09500
O278        O  0.72782470  0.26343932  0.06849964    -0.66200
Ni279      Ni  0.75224668  0.22587170  0.07256735     1.26300
O280        O  0.80834562  0.20996667  0.14669462    -0.66400
O281        O  0.75875124  0.22496660  0.01696108    -0.78700
C282        C  0.71302717  0.17738602  0.07653539     0.84700
O283        O  0.71568471  0.20444798  0.06369836    -0.65900
Ni284      Ni  0.79611139  0.28394218  0.05799022     1.27400
Ni285      Ni  0.78306659  0.24661975  0.14119160     1.26100
H286        H  0.73045399  0.24026275  0.13438366     0.39300
O287        O  0.71202368  0.17664007  0.60504203    -0.80700
O288        O  0.80017761  0.27851117  0.64884048    -0.65400
O289        O  0.72767276  0.23543348  0.62894201    -1.12000
C290        C  0.75224214  0.25519835  0.49481340     1.06200
O291        O  0.78583916  0.31533224  0.60786680    -0.78600
O292        O  0.73696412  0.31146975  0.56154117    -0.66200
Ni293      Ni  0.72058388  0.19730826  0.65387282     1.34900
C294        C  0.71077682  0.30101504  0.56552629     0.84900
O295        O  0.75835891  0.25516388  0.69653941    -0.79100
O296        O  0.72848052  0.21466147  0.70499257    -0.89400
C297        C  0.80291369  0.30535869  0.63531005     0.84500
O298        O  0.76032453  0.18026320  0.65194536    -0.67600
O299        O  0.76847359  0.27641588  0.50878720    -0.86900
C300        C  0.78627840  0.19148864  0.64929446     0.85300
C301        C  0.74392675  0.23676186  0.71831828     1.06900
H302        H  0.78428291  0.24210633  0.57713907     0.38700
O303        O  0.76806424  0.25611896  0.58431685    -1.09500
O304        O  0.70565048  0.27266169  0.57053580    -0.66200
Ni305      Ni  0.73112662  0.23595071  0.57259568     1.26300
O306        O  0.79046585  0.21994457  0.64407141    -0.66400
O307        O  0.73634681  0.23761504  0.51604889    -0.78700
C308        C  0.69410872  0.18548613  0.57783752     0.84700
O309        O  0.69508378  0.21268769  0.56441127    -0.65900
Ni310      Ni  0.77643987  0.29405682  0.55946248     1.27400
Ni311      Ni  0.76418803  0.25599788  0.64044461     1.26100
H312        H  0.71123940  0.24904342  0.63651968     0.39300
O313        O  0.44299870  0.52643718  0.01271710    -0.80700
O314        O  0.54471570  0.43316807  0.05118862    -0.65400
O315        O  0.50171276  0.50915071  0.03457564    -1.12000
C316        C  0.52106767  0.48441328  0.90050746     1.06200
O317        O  0.58088750  0.45202951  0.01472412    -0.78600
O318        O  0.57654133  0.50155262  0.96705349    -0.66200
Ni319      Ni  0.46532503  0.51892551  0.06099864     1.34900
C320        C  0.56496028  0.52829304  0.97062766     0.84900
O321        O  0.51936477  0.47433735  0.10113379    -0.79100
O322        O  0.48513187  0.51251526  0.11124198    -0.89400
C323        C  0.57194023  0.43271463  0.03987024     0.84500
O324        O  0.44900894  0.47891095  0.06255291    -0.67600
O325        O  0.54340440  0.46885712  0.91443486    -0.86900
C326        C  0.45835010  0.45190980  0.05454461     0.85300
C327        C  0.50484667  0.49293499  0.12357425     1.06900
H328        H  0.51029521  0.45226881  0.97990332     0.38700
O329        O  0.52298550  0.46861007  0.98863193    -1.09500
O330        O  0.53675656  0.53294911  0.97585708    -0.66200
Ni331      Ni  0.50183609  0.50629528  0.97818995     1.26300
O332        O  0.48551138  0.44570196  0.04473430    -0.66400
O333        O  0.50289846  0.50062148  0.92161171    -0.78700
C334        C  0.45069068  0.54417421  0.98498642     0.84700
O335        O  0.47723758  0.54282050  0.97111612    -0.65900
Ni336      Ni  0.56096735  0.46108343  0.96523773     1.27400
Ni337      Ni  0.52150636  0.47058083  0.04470410     1.26100
H338        H  0.51559275  0.52486847  0.04229265     0.39300
O339        O  0.43680046  0.45569489  0.50582846    -0.80700
O340        O  0.53680704  0.54396840  0.47285347    -0.65400
O341        O  0.49598612  0.46953918  0.48961095    -1.12000
C342        C  0.51202471  0.48516535  0.62326650     1.06200
O343        O  0.56771174  0.54114468  0.52503942    -0.78600
O344        O  0.56667933  0.47930680  0.54048727    -0.66200
Ni345      Ni  0.46128021  0.46002976  0.45975909     1.34900
C346        C  0.55639336  0.45249421  0.54413045     0.84900
O347        O  0.51558503  0.50196463  0.42362605    -0.79100
O348        O  0.48362208  0.46362603  0.41168938    -0.89400
C349        C  0.55963365  0.55273252  0.49211901     0.84500
O350        O  0.44422951  0.50043513  0.45339317    -0.67600
O351        O  0.53768880  0.49206252  0.60994221    -0.86900
C352        C  0.45273120  0.52693222  0.46343788     0.85300
C353        C  0.50272038  0.48312583  0.40040239     1.06900
H354        H  0.50049949  0.52843077  0.54399887     0.38700
O355        O  0.51351038  0.51128371  0.53682512    -1.09500
O356        O  0.52864631  0.44773800  0.55160062    -0.66200
Ni357      Ni  0.49247183  0.47406281  0.54528791     1.26300
O358        O  0.47895626  0.53198905  0.47669026    -0.66400
O359        O  0.48953140  0.48078257  0.60095098    -0.78700
C360        C  0.44272308  0.43817933  0.53483518     0.84700
O361        O  0.46863788  0.43795846  0.55090282    -0.65900
Ni362      Ni  0.55048610  0.51530174  0.56477688     1.27400
Ni363      Ni  0.51531061  0.50711306  0.48024551     1.26100
H364        H  0.51048437  0.45328994  0.48402810     0.39300
O365        O  0.07455206  0.53987640  0.27067983    -0.80700
O366        O  0.98095249  0.44623661  0.23120614    -0.65400
O367        O  0.01647106  0.52275075  0.25264308    -1.12000
C368        C  0.00318661  0.49849821  0.38635684     1.06200
O369        O  0.94762404  0.44859873  0.27984909    -0.78600
O370        O  0.94548990  0.50624873  0.31098608    -0.66200
Ni371      Ni  0.05068653  0.53488992  0.22381051     1.34900
C372        C  0.95440664  0.53369791  0.31327736     0.84900
O373        O  0.99749377  0.49166463  0.18517995    -0.79100
O374        O  0.02908059  0.53051178  0.17505402    -0.89400
C375        C  0.95736871  0.43716884  0.24778085     0.84500
O376        O  0.07005009  0.49591072  0.21569575    -0.67600
O377        O  0.98016512  0.48527213  0.37279532    -0.86900
C378        C  0.06268056  0.46853380  0.22254454     0.85300
C379        C  0.01003668  0.51111257  0.16290325     1.06900
H380        H  0.01669556  0.46251089  0.30307749     0.38700
O381        O  0.00202451  0.47856261  0.29715820    -1.09500
O382        O  0.98225679  0.54049706  0.31560751    -0.66200
Ni383      Ni  0.02010105  0.51735598  0.30837861     1.26300
O384        O  0.03690269  0.46157882  0.23516699    -0.66400
O385        O  0.02296716  0.51044924  0.36445731    -0.78700
C386        C  0.06724829  0.55718931  0.29937831     0.84700
O387        O  0.04148733  0.55515017  0.31537768    -0.65900
Ni388      Ni  0.96597492  0.46871594  0.32410855     1.27400
Ni389      Ni  0.99944211  0.48432881  0.24102651     1.26100
H390        H  0.00107992  0.53825748  0.24755143     0.39300
O391        O  0.06435686  0.53692706  0.78109010    -0.80700
O392        O  0.96878803  0.44571906  0.73267625    -0.65400
O393        O  0.00720693  0.52138318  0.75385406    -1.12000
C394        C  0.98557551  0.49702302  0.88691898     1.06200
O395        O  0.93075212  0.45989453  0.77135288    -0.78600
O396        O  0.93087291  0.51092927  0.81632138    -0.66200
Ni397      Ni  0.04450236  0.53122792  0.73106113     1.34900
C398        C  0.94083049  0.53785069  0.81299001     0.84900
O399        O  0.99364150  0.48823554  0.68509269    -0.79100
O400        O  0.02740784  0.52595476  0.67975330    -0.89400
C401        C  0.94168429  0.44330573  0.74371847     0.84500
O402        O  0.06243439  0.49128977  0.72791534    -0.67600
O403        O  0.96449825  0.48059035  0.87314239    -0.86900
C404        C  0.05338426  0.46440924  0.73417364     0.85300
C405        C  0.00944617  0.50664806  0.66475831     1.06900
H406        H  0.00046866  0.46379906  0.80650684     0.38700
O407        O  0.98675632  0.47995995  0.79784352    -1.09500
O408        O  0.96883189  0.54336785  0.81031532    -0.66200
Ni409      Ni  0.00544250  0.51785085  0.80975451     1.26300
O410        O  0.02629559  0.45860408  0.74284351    -0.66400
O411        O  0.00317701  0.51245183  0.86551953    -0.78700
C412        C  0.05497947  0.55459131  0.80841827     0.84700
O413        O  0.02759226  0.55455387  0.81887750    -0.65900
Ni414      Ni  0.94916159  0.47107780  0.82108598     1.27400
Ni415      Ni  0.98948659  0.48320438  0.74163865     1.26100
H416        H  0.99308164  0.53729909  0.74560463     0.39300
C417        C  0.01882170  0.51006121  0.48921428     0.20600
C418        C  0.03243161  0.52233025  0.52298174    -0.39300
C419        C  0.02032698  0.51321141  0.55919823     0.19500
C420        C  0.99662125  0.49328540  0.56182026     0.22200
C421        C  0.98305858  0.48100433  0.52812332    -0.39800
C422        C  0.99505270  0.49023062  0.49197833     0.21000
N423        N  0.02558096  0.51553837  0.45115869    -0.33100
C424        C  0.00574138  0.49910323  0.42974793    -0.10700
C425        C  0.98653606  0.48304639  0.45428657    -0.29500
N426        N  0.98923912  0.48835608  0.59971409    -0.46100
C427        C  0.00829966  0.50551904  0.62133243    -0.05300
C428        C  0.02802922  0.52117857  0.59704962    -0.22700
H429        H  0.05089278  0.53800592  0.52123737     0.19100
H430        H  0.96437466  0.46559647  0.52985771     0.17900
H431        H  0.96839340  0.46829256  0.44561107     0.14200
H432        H  0.04585748  0.53622870  0.60598262     0.14000
H433        H  0.04217156  0.52987752  0.44051201     0.32200
H434        H  0.97236986  0.47425886  0.61015508     0.35000
C435        C  0.98297124  0.49211945  0.99226060     0.20600
C436        C  0.97256565  0.48272116  0.02927910    -0.39300
C437        C  0.98644708  0.49624987  0.06207975     0.19500
C438        C  0.00888221  0.51750292  0.05815490     0.22200
C439        C  0.01939412  0.52670752  0.02126938    -0.39800
C440        C  0.00557405  0.51320573  0.98858575     0.21000
N441        N  0.97320308  0.48316507  0.95652925    -0.33100
C442        C  0.98971490  0.49874127  0.93001630    -0.10700
C443        C  0.01024024  0.51755765  0.94896986    -0.29500
N444        N  0.01903943  0.52638941  0.09357503    -0.46100
C445        C  0.00323637  0.51051387  0.12042763    -0.05300
C446        C  0.98254602  0.49152622  0.10193685    -0.22700
H447        H  0.95506387  0.46606164  0.03231560     0.19100
H448        H  0.03710367  0.54314332  0.01824943     0.17900
H449        H  0.02605056  0.53283188  0.93554379     0.14200
H450        H  0.96748964  0.47566305  0.11572681     0.14000
H451        H  0.95612649  0.46774373  0.95057098     0.32200
H452        H  0.03648596  0.54148381  0.09907823     0.35000
C453        C  0.49943098  0.48721963  0.79832649     0.20600
C454        C  0.48169115  0.49349922  0.76457177    -0.39300
C455        C  0.49520637  0.48612860  0.72811095     0.19500
C456        C  0.52423097  0.47403982  0.72586223     0.22200
C457        C  0.54154597  0.46731380  0.75928421    -0.39800
C458        C  0.52798934  0.47415978  0.79530821     0.21000
N459        N  0.49273486  0.49298243  0.83647309    -0.33100
C460        C  0.51728362  0.48313314  0.85734789    -0.10700
C461        C  0.53944585  0.47110546  0.83256790    -0.29500
N462        N  0.53309534  0.47128690  0.68837406    -0.46100
C463        C  0.50953851  0.48115723  0.66608199    -0.05300
C464        C  0.48524917  0.49041795  0.68968021    -0.22700
H465        H  0.45938269  0.50383909  0.76648171     0.19100
H466        H  0.56426623  0.45798635  0.75734937     0.17900
H467        H  0.56141890  0.46188891  0.84073080     0.14200
H468        H  0.46401807  0.50058454  0.68011010     0.14000
H469        H  0.47292841  0.50296802  0.84752588     0.32200
H470        H  0.55427854  0.46389009  0.67851566     0.35000
C471        C  0.51403789  0.50410859  0.22744552     0.20600
C472        C  0.51517045  0.52056544  0.26311497    -0.39300
C473        C  0.51411372  0.50288736  0.29767681     0.19500
C474        C  0.51136320  0.47133553  0.29668184     0.22200
C475        C  0.51085341  0.45486384  0.26108799    -0.39800
C476        C  0.51266472  0.47242606  0.22661277     0.21000
N477        N  0.51233083  0.51558591  0.19065911    -0.33100
C478        C  0.51039992  0.49096855  0.16632132    -0.10700
C479        C  0.51093235  0.46366682  0.18761255    -0.29500
N480        N  0.50798526  0.46014218  0.33325632    -0.46100
C481        C  0.50920828  0.48461669  0.35788826    -0.05300
C482        C  0.51323284  0.51167389  0.33681617    -0.22700
H483        H  0.51598318  0.54534805  0.26390744     0.19100
H484        H  0.50839936  0.43023446  0.26025870     0.17900
H485        H  0.50836441  0.44067190  0.17619704     0.14200
H486        H  0.51355736  0.53481075  0.34840845     0.14000
H487        H  0.51170585  0.53870689  0.18263435     0.32200
H488        H  0.50428573  0.43735665  0.34093517     0.35000
C489        C  0.84578973  0.36766824  0.67192889     0.20600
C490        C  0.85104767  0.39801833  0.68326568    -0.39300
C491        C  0.87999434  0.40373850  0.69761293     0.19500
C492        C  0.90233681  0.38114618  0.69974947     0.22200
C493        C  0.89687811  0.35054506  0.68910911    -0.39800
C494        C  0.86761440  0.34465648  0.67549634     0.21000
N495        N  0.82012024  0.35650993  0.65732538    -0.33100
C496        C  0.82525966  0.32601264  0.65238874    -0.10700
C497        C  0.85461759  0.31765756  0.66347336    -0.29500
N498        N  0.92789038  0.39264589  0.71465261    -0.46100
C499        C  0.92139939  0.42254646  0.72278963    -0.05300
C500        C  0.89176644  0.43022856  0.71268842    -0.22700
H501        H  0.83373885  0.41583339  0.68144705     0.19100
H502        H  0.91401770  0.33261557  0.69163161     0.17900
H503        H  0.86518045  0.29507484  0.66200852     0.14200
H504        H  0.88023409  0.45214645  0.71663052     0.14000
H505        H  0.80019087  0.36883274  0.65136268     0.32200
H506        H  0.94800161  0.38064438  0.72059741     0.35000
C507        C  0.62198499  0.40399300  0.54454212     0.20600
C508        C  0.65294360  0.39820926  0.54759218    -0.39300
C509        C  0.66166624  0.36771958  0.55436136     0.19500
C510        C  0.64127888  0.34437929  0.55755512     0.22200
C511        C  0.60998609  0.35025894  0.55488304    -0.39800
C512        C  0.60111742  0.38114767  0.54846207     0.21000
N513        N  0.60838611  0.43146851  0.54012843    -0.33100
C514        C  0.57845596  0.42669331  0.54206634    -0.10700
C515        C  0.57289305  0.39542570  0.54686524    -0.29500
N516        N  0.65587272  0.31718883  0.56299105    -0.46100
C517        C  0.68563864  0.32365894  0.56327660    -0.05300
C518        C  0.68992987  0.35494028  0.55822757    -0.22700
H519        H  0.66912166  0.41627804  0.54521641     0.19100
H520        H  0.59381233  0.33226979  0.55799260     0.17900
H521        H  0.55132740  0.38483824  0.55061170     0.14200
H522        H  0.71105449  0.36671949  0.55659750     0.14000
H523        H  0.61901202  0.45251895  0.53800661     0.32200
H524        H  0.64628932  0.29564697  0.56554636     0.35000
C525        C  0.74355607  0.22876277  0.82314734     0.20600
C526        C  0.73850941  0.21406748  0.85924023    -0.39300
C527        C  0.75042511  0.22846174  0.89270033     0.19500
C528        C  0.76616423  0.25540111  0.89027465     0.22200
C529        C  0.77139995  0.26996045  0.85415769    -0.39800
C530        C  0.75946206  0.25559351  0.82072389     0.21000
N531        N  0.73507293  0.21939938  0.78711636    -0.33100
C532        C  0.74584552  0.24025219  0.76146944    -0.10700
C533        C  0.76109914  0.26327348  0.78137217    -0.29500
N534        N  0.77449290  0.26490650  0.92630601    -0.46100
C535        C  0.76394647  0.24395852  0.95197972    -0.05300
C536        C  0.74898354  0.22071468  0.93207611    -0.22700
H537        H  0.72616680  0.19302131  0.86112507     0.19100
H538        H  0.78381964  0.29095539  0.85224633     0.17900
H539        H  0.77256688  0.28249613  0.76869186     0.14200
H540        H  0.73797164  0.20121113  0.94476000     0.14000
H541        H  0.72346322  0.19949771  0.78031553     0.32200
H542        H  0.78630334  0.28469272  0.93304740     0.35000
C543        C  0.76533492  0.25043788  0.31960464     0.20600
C544        C  0.77718147  0.26540164  0.35267883    -0.39300
C545        C  0.76453741  0.25769465  0.38907804     0.19500
C546        C  0.74190447  0.23660997  0.39252409     0.22200
C547        C  0.72987127  0.22182455  0.35938199    -0.39800
C548        C  0.74249693  0.22956704  0.32293182     0.21000
N549        N  0.77391473  0.25325026  0.28178241    -0.33100
C550        C  0.75638401  0.23398761  0.26085282    -0.10700
C551        C  0.73651486  0.21889694  0.28555628    -0.29500
N552        N  0.73442140  0.23270761  0.43062531    -0.46100
C553        C  0.75243589  0.25155487  0.45150040    -0.05300
C554        C  0.77132439  0.26759499  0.42649679    -0.22700
H555        H  0.79513735  0.28162610  0.35032138     0.19100
H556        H  0.71223477  0.20525024  0.36180940     0.17900
H557        H  0.72007960  0.20209221  0.27728133     0.14200
H558        H  0.78807450  0.28409911  0.43469584     0.14000
H559        H  0.79089942  0.26704525  0.27099172     0.32200
H560        H  0.71817997  0.21814494  0.44169332     0.35000
C561        C  0.90905763  0.37584044  0.22339499     0.20600
C562        C  0.88850822  0.35261120  0.23074944    -0.39300
C563        C  0.87622581  0.33858888  0.19730690     0.19500
C564        C  0.88349735  0.34753164  0.15948283     0.22200
C565        C  0.90446575  0.37041884  0.15209956    -0.39800
C566        C  0.91716900  0.38403579  0.18557138     0.21000
N567        N  0.92269473  0.39352892  0.25013650    -0.33100
C568        C  0.93996307  0.41281154  0.22931103    -0.10700
C569        C  0.93738628  0.40747412  0.18889507    -0.29500
N570        N  0.86735813  0.33206287  0.13281959    -0.46100
C571        C  0.85000376  0.31276524  0.15366736    -0.05300
C572        C  0.85503959  0.31601837  0.19406657    -0.22700
H573        H  0.88217977  0.34628794  0.26034722     0.19100
H574        H  0.91009086  0.37743757  0.12250649     0.17900
H575        H  0.94787264  0.41988923  0.16524046     0.14200
H576        H  0.84382177  0.30441529  0.21780645     0.14000
H577        H  0.92018823  0.39276679  0.28071798     0.32200
H578        H  0.86782614  0.33475520  0.10223736     0.35000
C579        C  0.63845647  0.39169327  0.06937825     0.20600
C580        C  0.66967001  0.38766400  0.07390180    -0.39300
C581        C  0.68035535  0.35722986  0.07615279     0.19500
C582        C  0.66145254  0.33253152  0.07375626     0.22200
C583        C  0.63005371  0.33657613  0.06951389    -0.39800
C584        C  0.61925867  0.36717715  0.06767626     0.21000
N585        N  0.62340185  0.41818139  0.06244975    -0.33100
C586        C  0.59430648  0.41078617  0.05644874    -0.10700
C587        C  0.59067284  0.37915856  0.06000166    -0.29500
N588        N  0.67757138  0.30594689  0.07369467    -0.46100
C589        C  0.70691668  0.31385622  0.07606640    -0.05300
C590        C  0.70942761  0.34567196  0.07793893    -0.22700
H591        H  0.68468393  0.40685116  0.07417911     0.19100
H592        H  0.61525448  0.31734377  0.06649888     0.17900
H593        H  0.57050218  0.36646208  0.05412881     0.14200
H594        H  0.72987041  0.35866528  0.07874593     0.14000
H595        H  0.63266857  0.43986491  0.05966142     0.32200
H596        H  0.66919274  0.28386074  0.07091694     0.35000
C597        C  0.85554992  0.64710719  0.82190491     0.20600
C598        C  0.88664230  0.64077499  0.81692119    -0.39300
C599        C  0.89539150  0.60940563  0.81515327     0.19500
C600        C  0.87461710  0.58639214  0.81794534     0.22200
C601        C  0.84378987  0.59266803  0.82268242    -0.39800
C602        C  0.83517140  0.62373249  0.82456913     0.21000
N603        N  0.84117074  0.67475502  0.82455809    -0.33100
C604        C  0.81146045  0.66865868  0.82875077    -0.10700
C605        C  0.80708396  0.63708150  0.82887276    -0.29500
N606        N  0.88822173  0.55860497  0.81655154    -0.46100
C607        C  0.91811537  0.56343896  0.81302721    -0.05300
C608        C  0.92351933  0.59498653  0.81184482    -0.22700
H609        H  0.90281807  0.65885814  0.81490203     0.19100
H610        H  0.82762856  0.57458311  0.82501650     0.17900
H611        H  0.78596909  0.62538627  0.83133574     0.14200
H612        H  0.94507993  0.60586163  0.80980592     0.14000
H613        H  0.85083361  0.69631171  0.82284608     0.32200
H614        H  0.87772042  0.53749136  0.81871337     0.35000
C615        C  0.65927716  0.62124094  0.93716094     0.20600
C616        C  0.65606812  0.58954689  0.94267861    -0.39300
C617        C  0.62741045  0.57999439  0.95400595     0.19500
C618        C  0.60345836  0.60033295  0.95931251     0.22200
C619        C  0.60675444  0.63228911  0.95397819    -0.39800
C620        C  0.63568638  0.64197667  0.94287317     0.21000
N621        N  0.68372309  0.63549655  0.92378071    -0.33100
C622        C  0.67617800  0.66576012  0.92105849    -0.10700
C623        C  0.64631435  0.67078700  0.93302914    -0.29500
N624        N  0.57806626  0.58494023  0.96747395    -0.46100
C625        C  0.58596983  0.55455189  0.96722776    -0.05300
C626        C  0.61668731  0.55084786  0.95920830    -0.22700
H627        H  0.67441775  0.57333297  0.93741610     0.19100
H628        H  0.58800813  0.64834546  0.95723322     0.17900
H629        H  0.63356471  0.69221900  0.93223031     0.14200
H630        H  0.62929305  0.52947726  0.95581736     0.14000
H631        H  0.70416192  0.62505958  0.91567762     0.32200
H632        H  0.55653087  0.59444439  0.97154061     0.35000
C633        C  0.75398689  0.75688991  0.65760970     0.20600
C634        C  0.76604547  0.77319529  0.62608377    -0.39300
C635        C  0.75968075  0.76180787  0.58833826     0.19500
C636        C  0.74242186  0.73621435  0.58216192     0.22200
C637        C  0.73005727  0.71999877  0.61379400    -0.39800
C638        C  0.73659163  0.73133933  0.65171840     0.21000
N639        N  0.75817116  0.76224881  0.69628927    -0.33100
C640        C  0.74334483  0.73997228  0.71540110    -0.10700
C641        C  0.72944207  0.72034855  0.68855890    -0.29500
N642        N  0.74070561  0.72954287  0.54335675    -0.46100
C643        C  0.75716634  0.75101386  0.52487265    -0.05300
C644        C  0.76914468  0.77155531  0.55205617    -0.22700
H645        H  0.77997683  0.79293086  0.63064520     0.19100
H646        H  0.71689500  0.69970473  0.60928011     0.17900
H647        H  0.71660669  0.70021677  0.69513208     0.14200
H648        H  0.78328316  0.79086310  0.54609088     0.14000
H649        H  0.77082083  0.77966228  0.70888431     0.32200
H650        H  0.72938734  0.71136650  0.53033775     0.35000
C651        C  0.77039840  0.75622908  0.15551572     0.20600
C652        C  0.77973054  0.77375958  0.12323188    -0.39300
C653        C  0.76850394  0.76481617  0.08617415     0.19500
C654        C  0.74975970  0.74012521  0.08160775     0.22200
C655        C  0.74058430  0.72260241  0.11370761    -0.39800
C656        C  0.75147990  0.73172688  0.15064455     0.21000
N657        N  0.77682171  0.76055411  0.19404271    -0.33100
C658        C  0.76163434  0.73870732  0.21366092    -0.10700
C659        C  0.74572273  0.72033698  0.18743458    -0.29500
N660        N  0.74200642  0.73632875  0.04360212    -0.46100
C661        C  0.75581066  0.75882076  0.02364499    -0.05300
C662        C  0.77253763  0.77709295  0.04920015    -0.22700
H663        H  0.79426016  0.79316128  0.12673942     0.19100
H664        H  0.72565465  0.70351433  0.11025167     0.17900
H665        H  0.73137588  0.70140519  0.19443851     0.14200
H666        H  0.78597450  0.79659880  0.04167900     0.14000
H667        H  0.79022592  0.77753880  0.20621886     0.32200
H668        H  0.72823169  0.71942582  0.03196308     0.35000
C669        C  0.88662251  0.58007183  0.31666313     0.20600
C670        C  0.85539308  0.58585489  0.31648806    -0.39300
C671        C  0.84612053  0.61649479  0.32263545     0.19500
C672        C  0.86636069  0.63968491  0.32866549     0.22200
C673        C  0.89767710  0.63382620  0.32911468    -0.39800
C674        C  0.90700744  0.60311689  0.32275372     0.21000
N675        N  0.90098900  0.55288569  0.31155912    -0.33100
C676        C  0.93086592  0.55838630  0.31444341    -0.10700
C677        C  0.93550644  0.58956642  0.32135531    -0.29500
N678        N  0.85174459  0.66698689  0.33260920    -0.46100
C679        C  0.82196103  0.66112766  0.32900451    -0.05300
C680        C  0.81767529  0.62982106  0.32291127    -0.22700
H681        H  0.83945726  0.56782749  0.31158477     0.19100
H682        H  0.91361500  0.65188253  0.33374307     0.17900
H683        H  0.95678765  0.60068925  0.32559126     0.14200
H684        H  0.79656420  0.61842187  0.31838774     0.14000
H685        H  0.89098413  0.53172067  0.30697049     0.32200
H686        H  0.86145528  0.68834040  0.33679589     0.35000
C687        C  0.60977501  0.61373433  0.47229447     0.20600
C688        C  0.62960465  0.63744280  0.48129928    -0.39300
C689        C  0.64578069  0.64903882  0.44938878     0.19500
C690        C  0.64282713  0.63738694  0.41160818     0.22200
C691        C  0.62256806  0.61414441  0.40246438    -0.39800
C692        C  0.60595902  0.60300073  0.43420217     0.21000
N693        N  0.59320809  0.59764465  0.49765211    -0.33100
C694        C  0.57831055  0.57692409  0.47547014    -0.10700
C695        C  0.58548068  0.57972246  0.43569006    -0.29500
N696        N  0.66230815  0.65054547  0.38710498    -0.46100
C697        C  0.67749981  0.67106698  0.40919920    -0.05300
C698        C  0.66761781  0.67107174  0.44816992    -0.22700
H699        H  0.63269610  0.64577745  0.51108775     0.19100
H700        H  0.62037594  0.60494974  0.37295208     0.17900
H701        H  0.57797237  0.56554113  0.41149986     0.14200
H702        H  0.67620717  0.68434888  0.47258116     0.14000
H703        H  0.59247738  0.60020260  0.52825907     0.32200
H704        H  0.66537834  0.64560539  0.35722768     0.35000
C705        C  0.64065353  0.90220917  0.41914681     0.20600
C706        C  0.67174893  0.89701815  0.42268654    -0.39300
C707        C  0.68230280  0.86790304  0.41118885     0.19500
C708        C  0.66330716  0.84547402  0.39754293     0.22200
C709        C  0.63213546  0.85082563  0.39347180    -0.39800
C710        C  0.62154935  0.88016771  0.40467138     0.21000
N711        N  0.62498439  0.92687997  0.43182652    -0.33100
C712        C  0.59565091  0.92075047  0.42536514    -0.10700
C713        C  0.59252183  0.89197027  0.40789976    -0.29500
N714        N  0.67863766  0.81886689  0.39206470    -0.46100
C715        C  0.70755027  0.82455311  0.40213794    -0.05300
C716        C  0.71073538  0.85497131  0.41383808    -0.22700
H717        H  0.68649420  0.91401596  0.43499510     0.19100
H718        H  0.61712249  0.83310074  0.38378846     0.17900
H719        H  0.57182376  0.88035777  0.40137939     0.14200
H720        H  0.73081062  0.86568434  0.42494533     0.14000
H721        H  0.63365509  0.94616520  0.44579678     0.32200
H722        H  0.66982371  0.79791012  0.38330436     0.35000
C723        C  0.63514557  0.13991929  0.53627522     0.20600
C724        C  0.60672233  0.13310347  0.52001665    -0.39300
C725        C  0.59927598  0.10175066  0.51938332     0.19500
C726        C  0.61885911  0.07922284  0.53363089     0.22200
C727        C  0.64690749  0.08597816  0.54994369    -0.39800
C728        C  0.65414443  0.11700535  0.55080950     0.21000
N729        N  0.64725701  0.16776976  0.54222371    -0.33100
C730        C  0.67391609  0.16220168  0.56105437    -0.10700
C731        C  0.67878607  0.13082856  0.56675476    -0.29500
N732        N  0.60657971  0.05149171  0.53132896    -0.46100
C733        C  0.57865444  0.05586849  0.51586550    -0.05300
C734        C  0.57323759  0.08704760  0.50774109    -0.22700
H735        H  0.59133132  0.15087371  0.50946580     0.19100
H736        H  0.66178952  0.06832908  0.56199010     0.17900
H737        H  0.69754638  0.11963241  0.58179983     0.14200
H738        H  0.55282838  0.09758243  0.49599453     0.14000
H739        H  0.63749626  0.18914267  0.53546514     0.32200
H740        H  0.61642935  0.03079555  0.54083464     0.35000
C741        C  0.49743476  0.97865246  0.74996333     0.20600
C742        C  0.49950690  0.95920972  0.71695723    -0.39300
C743        C  0.49889050  0.97381938  0.68009726     0.19500
C744        C  0.49575985  0.00534728  0.67635648     0.22200
C745        C  0.49430253  0.02481026  0.70937439    -0.39800
C746        C  0.49557341  0.01025356  0.74623821     0.21000
N747        N  0.49951165  0.97058060  0.78814830    -0.33100
C748        C  0.49978525  0.99723253  0.80880412    -0.10700
C749        C  0.49736683  0.02247087  0.78371133    -0.29500
N750        N  0.49723431  0.01367764  0.63826796    -0.46100
C751        C  0.50217487  0.98737480  0.61768915    -0.05300
C752        C  0.50326754  0.96201948  0.64274642    -0.22700
H753        H  0.50247407  0.93460456  0.71980179     0.19100
H754        H  0.49335016  0.04953348  0.70656827     0.17900
H755        H  0.49787162  0.04648651  0.79174618     0.14200
H756        H  0.50793600  0.93832849  0.63484643     0.14000
H757        H  0.50234832  0.94840008  0.79935883     0.32200
H758        H  0.49688930  0.03602015  0.62719589     0.35000
C759        C  0.48491157  0.97582150  0.17901355     0.20600
C760        C  0.47043171  0.96720336  0.21368681    -0.39300
C761        C  0.48588245  0.97315141  0.24879982     0.19500
C762        C  0.51388425  0.98636567  0.24954937     0.22200
C763        C  0.52832946  0.99528129  0.21463196    -0.39800
C764        C  0.51264332  0.98958236  0.17926151     0.21000
N765        N  0.47427946  0.97328875  0.14216055    -0.33100
C766        C  0.49510085  0.98570087  0.11831528    -0.10700
C767        C  0.51947890  0.99619787  0.14038090    -0.29500
N768        N  0.52297677  0.99090888  0.28707392    -0.46100
C769        C  0.50025830  0.98100900  0.31005514    -0.05300
C770        C  0.47687067  0.96971713  0.28717856    -0.22700
H771        H  0.44835926  0.95723639  0.21337929     0.19100
H772        H  0.54983233  0.00640469  0.21502409     0.17900
H773        H  0.53933501  0.00723674  0.12952593     0.14200
H774        H  0.45551002  0.96140032  0.29731533     0.14000
H775        H  0.45373199  0.96403198  0.13380677     0.32200
H776        H  0.54247748  0.00175016  0.29640399     0.35000
C777        C  0.59978381  0.88719191  0.91391611     0.20600
C778        C  0.60749893  0.85556875  0.91526743    -0.39300
C779        C  0.63836192  0.84789466  0.91064467     0.19500
C780        C  0.65963568  0.87013056  0.90519689     0.22200
C781        C  0.65196207  0.90143590  0.90351549    -0.39800
C782        C  0.62140239  0.90899284  0.90804943     0.21000
N783        N  0.57237655  0.90087752  0.91866215    -0.33100
C784        C  0.57687729  0.93156295  0.91575861    -0.10700
C785        C  0.60716012  0.93724563  0.90891307    -0.29500
N786        N  0.68737676  0.85749696  0.90273268    -0.46100
C787        C  0.68423026  0.82678007  0.90636155    -0.05300
C788        C  0.65384932  0.81981528  0.91130830    -0.22700
H789        H  0.59083216  0.83829097  0.92004575     0.19100
H790        H  0.66870490  0.91876812  0.89948120     0.17900
H791        H  0.61752443  0.95930265  0.90555827     0.14200
H792        H  0.64447774  0.79739712  0.91561934     0.14000
H793        H  0.55203163  0.89009708  0.92372348     0.32200
H794        H  0.70739793  0.86922227  0.89910978     0.35000
C795        C  0.62617766  0.08343300  0.02337154     0.20600
C796        C  0.65727493  0.08681398  0.02855445    -0.39300
C797        C  0.66636602  0.11605404  0.04033829     0.19500
C798        C  0.64606334  0.14022783  0.04576106     0.22200
C799        C  0.61489701  0.13669599  0.04111506    -0.39800
C800        C  0.60574061  0.10729278  0.03002180     0.21000
N801        N  0.61204245  0.05842694  0.01047833    -0.33100
C802        C  0.58237481  0.06625960  0.00924949    -0.10700
C803        C  0.57744903  0.09645762  0.02166335    -0.29500
N804        N  0.66038689  0.16561590  0.05720302    -0.46100
C805        C  0.68991100  0.15737011  0.05995116    -0.05300
C806        C  0.69453903  0.12663312  0.04967042    -0.22700
H807        H  0.67321169  0.06805208  0.02375638     0.19100
H808        H  0.59895631  0.15547475  0.04573542     0.17900
H809        H  0.55632388  0.10929071  0.02202151     0.14200
H810        H  0.71557051  0.11363178  0.04994338     0.14000
H811        H  0.62202632  0.03756640  0.00185088     0.32200
H812        H  0.65055160  0.18683004  0.06458846     0.35000
C813        C  0.15939098  0.63027724  0.84631322     0.20600
C814        C  0.15216190  0.59930745  0.84284454    -0.39300
C815        C  0.12143687  0.59313663  0.84124980     0.19500
C816        C  0.09938865  0.61601699  0.84351737     0.22200
C817        C  0.10670788  0.64716590  0.84709373    -0.39800
C818        C  0.13761202  0.65342231  0.84819623     0.21000
N819        N  0.18693203  0.64197424  0.84436612    -0.33100
C820        C  0.18297519  0.67286955  0.84453661    -0.10700
C821        C  0.15244959  0.68100675  0.84733502    -0.29500
N822        N  0.07206481  0.60445374  0.83612279    -0.46100
C823        C  0.07698128  0.57426149  0.82811173    -0.05300
C824        C  0.10743857  0.56635256  0.83160846    -0.22700
H825        H  0.16927252  0.58146639  0.83924585     0.19100
H826        H  0.08965287  0.66527731  0.84678193     0.17900
H827        H  0.14243389  0.70386390  0.84685856     0.14200
H828        H  0.11821287  0.54457363  0.82427451     0.14000
H829        H  0.20718766  0.62958564  0.84134902     0.32200
H830        H  0.05185274  0.61686898  0.83270604     0.35000
C831        C  0.34802898  0.62795749  0.93948499     0.20600
C832        C  0.35346651  0.59819202  0.95403558    -0.39300
C833        C  0.38382723  0.58887314  0.95719486     0.19500
C834        C  0.40705001  0.60753005  0.94606081     0.22200
C835        C  0.40158117  0.63744083  0.93176564    -0.39800
C836        C  0.37118173  0.64701386  0.92926741     0.21000
N837        N  0.32116745  0.64174739  0.93251368    -0.33100
C838        C  0.32710256  0.67001245  0.91834356    -0.10700
C839        C  0.35808309  0.67422013  0.91598731    -0.29500
N840        N  0.43392419  0.59342125  0.95257431    -0.46100
C841        C  0.42776114  0.56581332  0.96864954    -0.05300
C842        C  0.39673418  0.56216864  0.97185495    -0.22700
H843        H  0.33537217  0.58341555  0.96246948     0.19100
H844        H  0.41967057  0.65222527  0.92337515     0.17900
H845        H  0.36942212  0.69377100  0.90396482     0.14200
H846        H  0.38520454  0.54289415  0.98431780     0.14000
H847        H  0.30001914  0.63221861  0.93610548     0.32200
H848        H  0.45513976  0.60254657  0.94807295     0.35000
C849        C  0.35213493  0.84591982  0.89638145     0.20600
C850        C  0.38348436  0.84957272  0.89551538    -0.39300
C851        C  0.39334665  0.87975886  0.90045987     0.19500
C852        C  0.37336502  0.90420012  0.90612341     0.22200
C853        C  0.34218849  0.90065160  0.90620945    -0.39800
C854        C  0.33242460  0.87067345  0.90110658     0.21000
N855        N  0.33704364  0.81948864  0.89573222    -0.33100
C856        C  0.30759702  0.82769986  0.89995381    -0.10700
C857        C  0.30391909  0.85943223  0.90311748    -0.29500
N858        N  0.38802230  0.92959517  0.91591102    -0.46100
C859        C  0.41758338  0.92150885  0.91652429    -0.05300
C860        C  0.42197804  0.89073438  0.90623160    -0.22700
H861        H  0.39905114  0.83021690  0.89312846     0.19100
H862        H  0.32670015  0.91964890  0.91190025     0.17900
H863        H  0.28322756  0.87246139  0.90785347     0.14200
H864        H  0.44287917  0.87752321  0.90698614     0.14000
H865        H  0.34624171  0.79728222  0.89376478     0.32200
H866        H  0.37835220  0.95064242  0.92440579     0.35000
C867        C  0.24878761  0.76168175  0.58750142     0.20600
C868        C  0.23756834  0.77395288  0.62288252    -0.39300
C869        C  0.24352209  0.75655811  0.65676836     0.19500
C870        C  0.25948516  0.72896716  0.65553919     0.22200
C871        C  0.27096512  0.71671947  0.62003877    -0.39800
C872        C  0.26500372  0.73424143  0.58595723     0.21000
N873        N  0.24582827  0.77395639  0.55147263    -0.33100
C874        C  0.26038007  0.75452292  0.52637486    -0.10700
C875        C  0.27270632  0.72931992  0.54681415    -0.29500
N876        N  0.26219011  0.71705421  0.69195761    -0.46100
C877        C  0.24789686  0.73724415  0.71648466    -0.05300
C878        C  0.23597253  0.76219860  0.69553265    -0.22700
H879        H  0.22507789  0.79553717  0.62391938     0.19100
H880        H  0.28359522  0.69521317  0.61906175     0.17900
H881        H  0.28529059  0.70999106  0.53470369     0.14200
H882        H  0.22393631  0.78206010  0.70717123     0.14000
H883        H  0.23447094  0.79447059  0.54440418     0.32200
H884        H  0.27346833  0.69665307  0.69972983     0.35000
C885        C  0.24203498  0.76842493  0.08695157     0.20600
C886        C  0.23276284  0.77961037  0.12402108    -0.39300
C887        C  0.24562980  0.76469131  0.15701307     0.19500
C888        C  0.26609093  0.74048351  0.15322903     0.22200
C889        C  0.27528310  0.72928792  0.11623620    -0.39800
C890        C  0.26248366  0.74419071  0.08335754     0.21000
N891        N  0.23335082  0.77869532  0.05113465    -0.33100
C892        C  0.24839411  0.76084251  0.02456135    -0.10700
C893        C  0.26675171  0.73905351  0.04363522    -0.29500
N894        N  0.27474962  0.72992960  0.18884603    -0.46100
C895        C  0.25972544  0.74740199  0.21579974    -0.05300
C896        C  0.24135889  0.76944948  0.19698308    -0.22700
H897        H  0.21670444  0.79850011  0.12695749     0.19100
H898        H  0.29123554  0.71030773  0.11326496     0.17900
H899        H  0.28136921  0.72184791  0.03021259     0.14200
H900        H  0.22656211  0.78635619  0.21067301     0.14000
H901        H  0.21819839  0.79677411  0.04515121     0.32200
H902        H  0.28977198  0.71166612  0.19444898     0.35000
C903        C  0.11280734  0.62073291  0.32587928     0.20600
C904        C  0.11987384  0.65186609  0.33142129    -0.39300
C905        C  0.15076885  0.65862212  0.33102184     0.19500
C906        C  0.17261205  0.63598425  0.32517183     0.22200
C907        C  0.16561390  0.60519201  0.31911540    -0.39800
C908        C  0.13501537  0.59850109  0.31980451     0.21000
N909        N  0.08529711  0.60838377  0.32279557    -0.33100
C910        C  0.09026324  0.57824694  0.31419121    -0.10700
C911        C  0.12099992  0.57135981  0.31227990    -0.29500
N912        N  0.20012715  0.64782342  0.32550127    -0.46100
C913        C  0.19632599  0.67838089  0.33164480    -0.05300
C914        C  0.16567951  0.68614509  0.33518169    -0.22700
H915        H  0.10262724  0.66951232  0.33530970     0.19100
H916        H  0.18280581  0.58772634  0.31369351     0.17900
H917        H  0.13163793  0.54973004  0.30395970     0.14200
H918        H  0.15569434  0.70874273  0.33968023     0.14000
H919        H  0.06455417  0.62009340  0.32361572     0.32200
H920        H  0.22041968  0.63570445  0.32140479     0.35000
C921        C  0.37473405  0.63925963  0.43802232     0.20600
C922        C  0.40400449  0.63128258  0.45121858    -0.39300
C923        C  0.41072489  0.59960816  0.45413725     0.19500
C924        C  0.38979696  0.57769996  0.44479515     0.22200
C925        C  0.36070172  0.58562705  0.43167080    -0.39800
C926        C  0.35411343  0.61711547  0.42844174     0.21000
N927        N  0.36327470  0.66755642  0.43011820    -0.33100
C928        C  0.33539613  0.66319393  0.41479377    -0.10700
C929        C  0.32895667  0.63204583  0.41353144    -0.29500
N930        N  0.40194531  0.54930399  0.44783878    -0.46100
C931        C  0.43096637  0.55288300  0.45903823    -0.05300
C932        C  0.43726944  0.58398868  0.46355383    -0.22700
H933        H  0.42058011  0.64841209  0.45761042     0.19100
H934        H  0.34464775  0.56846905  0.42330339     0.17900
H935        H  0.30895128  0.62163145  0.40173534     0.14200
H936        H  0.45862965  0.59383226  0.47131038     0.14000
H937        H  0.37428648  0.68834938  0.43296601     0.32200
H938        H  0.39129610  0.52872187  0.44165393     0.35000
C939        C  0.37397294  0.84566845  0.41495275     0.20600
C940        C  0.40508395  0.85150903  0.41117141    -0.39300
C941        C  0.41410969  0.88153280  0.42128844     0.19500
C942        C  0.39353789  0.90358002  0.43415831     0.22200
C943        C  0.36284704  0.89789098  0.43758096    -0.39800
C944        C  0.35397653  0.86834004  0.42748940     0.21000
N945        N  0.35917042  0.81937015  0.40743516    -0.33100
C946        C  0.32960422  0.82578590  0.41513942    -0.10700
C947        C  0.32583498  0.85614276  0.42760910    -0.29500
N948        N  0.40681926  0.93034452  0.44098705    -0.46100
C949        C  0.43631408  0.92613091  0.43231319    -0.05300
C950        C  0.44191708  0.89573834  0.41994925    -0.22700
H951        H  0.42097287  0.83414203  0.40089448     0.19100
H952        H  0.34687323  0.91543216  0.44718692     0.17900
H953        H  0.30508967  0.86780800  0.43605033     0.14200
H954        H  0.46304402  0.88579726  0.40987276     0.14000
H955        H  0.36852446  0.79851722  0.39774936     0.32200
H956        H  0.39606482  0.95075868  0.44983357     0.35000
C957        C  0.13360671  0.35581083  0.70010427     0.20600
C958        C  0.10487687  0.36212859  0.71592535    -0.39300
C959        C  0.09733048  0.39339871  0.72144928     0.19500
C960        C  0.11708282  0.41633781  0.71215227     0.22200
C961        C  0.14555413  0.41007231  0.69635895    -0.39800
C962        C  0.15290084  0.37908858  0.69053145     0.21000
N963        N  0.14551924  0.32835888  0.68926285    -0.33100
C964        C  0.17221762  0.33462443  0.67213402    -0.10700
C965        C  0.17756027  0.36590725  0.67260600    -0.29500
N966        N  0.10419130  0.44409603  0.71732378    -0.46100
C967        C  0.07579296  0.43918189  0.72968572    -0.05300
C968        C  0.07065355  0.40775949  0.73294018    -0.22700
H969        H  0.08920508  0.34416350  0.72212671     0.19100
H970        H  0.16047896  0.42812112  0.68777924     0.17900
H971        H  0.19650806  0.37754245  0.66010439     0.14200
H972        H  0.04984953  0.39693979  0.74069346     0.14000
H973        H  0.13548520  0.30700858  0.69142716     0.32200
H974        H  0.11377138  0.46516252  0.71096735     0.35000
C975        C  0.39291041  0.38089582  0.56955329     0.20600
C976        C  0.38415915  0.35169479  0.58214874    -0.39300
C977        C  0.35326948  0.34568341  0.57858190     0.19500
C978        C  0.33276912  0.36712744  0.56371265     0.22200
C979        C  0.34151024  0.39601116  0.55078828    -0.39800
C980        C  0.37220365  0.40196229  0.55431292     0.21000
N981        N  0.42104661  0.39177929  0.56735253    -0.33100
C982        C  0.41796784  0.41970469  0.54995882    -0.10700
C983        C  0.38785396  0.42678900  0.54182662    -0.29500
N984        N  0.30488842  0.35594639  0.56290322    -0.46100
C985        C  0.30749595  0.32702640  0.57717748    -0.05300
C986        C  0.33736212  0.31972059  0.58715401    -0.22700
H987        H  0.40021942  0.33475243  0.59324376     0.19100
H988        H  0.32562947  0.41249089  0.53820613     0.17900
H989        H  0.37878653  0.44679580  0.52665212     0.14200
H990        H  0.34621765  0.29825905  0.59885934     0.14000
H991        H  0.44109908  0.38020148  0.57479678     0.32200
H992        H  0.28536234  0.36714299  0.55262705     0.35000
C993        C  0.40864657  0.10981594  0.54382969     0.20600
C994        C  0.39963838  0.12477542  0.57867102    -0.39300
C995        C  0.37634006  0.14684869  0.57460850     0.19500
C996        C  0.36356701  0.15412053  0.53840660     0.22200
C997        C  0.37246897  0.13901781  0.50357719    -0.39800
C998        C  0.39521758  0.11634257  0.50781457     0.21000
N999        N  0.42928109  0.08695452  0.54020520    -0.33100
C1000       C  0.42872732  0.07849495  0.50172820    -0.10700
C1001       C  0.40764276  0.09622093  0.48059690    -0.29500
N1002       N  0.34058934  0.17444978  0.54276533    -0.46100
C1003       C  0.33811724  0.17946378  0.58209188    -0.05300
C1004       C  0.36020801  0.16285795  0.60289390    -0.22700
H1005       H  0.40928139  0.11882801  0.60708064     0.19100
H1006       H  0.36170199  0.14378544  0.47549209     0.17900
H1007       H  0.40215486  0.09457935  0.44955168     0.14200
H1008       H  0.36314191  0.16156124  0.63454502     0.14000
H1009       H  0.44246369  0.07721350  0.56269883     0.32200
H1010       H  0.32620606  0.18282768  0.52063242     0.35000
C1011       C  0.24792015  0.27295897  0.90753723     0.20600
C1012       C  0.23782245  0.28597563  0.87182905    -0.39300
C1013       C  0.24215473  0.26773330  0.83808230     0.19500
C1014       C  0.25529505  0.23868903  0.84001165     0.22200
C1015       C  0.26554820  0.22578299  0.87566286    -0.39800
C1016       C  0.26145845  0.24409745  0.90931043     0.21000
N1017       N  0.24613870  0.28546169  0.94367506    -0.33100
C1018       C  0.25875269  0.26452066  0.96868099    -0.10700
C1019       C  0.26871226  0.23841929  0.94828900    -0.29500
N1020       N  0.25756778  0.22627341  0.80388364    -0.46100
C1021       C  0.24618383  0.24760064  0.77849901    -0.05300
C1022       C  0.23616973  0.27380893  0.79878177    -0.22700
H1023       H  0.22756288  0.30870346  0.87041594     0.19100
H1024       H  0.27613227  0.20320549  0.87703624     0.17900
H1025       H  0.27913882  0.21782408  0.96043664     0.14200
H1026       H  0.22670747  0.29477422  0.78638429     0.14000
H1027       H  0.23660152  0.30684232  0.95093437     0.32200
H1028       H  0.26729141  0.20494397  0.79679806     0.35000
C1029       C  0.25880709  0.23900062  0.41117019     0.20600
C1030       C  0.27575249  0.22696133  0.37960495    -0.39300
C1031       C  0.26680827  0.23682332  0.34176033     0.19500
C1032       C  0.24274090  0.25698583  0.33571146     0.22200
C1033       C  0.22575204  0.26892407  0.36724428    -0.39800
C1034       C  0.23481323  0.25924845  0.40506498     0.21000
N1035       N  0.26370779  0.23462164  0.45004083    -0.33100
C1036       C  0.24286481  0.25251048  0.46882072    -0.10700
C1037       C  0.22435742  0.26800265  0.44164984    -0.29500
N1038       N  0.23881474  0.26276600  0.29697461    -0.46100
C1039       C  0.26052248  0.24609653  0.27808969    -0.05300
C1040       C  0.27842232  0.22969263  0.30516031    -0.22700
H1041       H  0.29477238  0.21141250  0.38418674     0.19100
H1042       H  0.20713500  0.28498318  0.36272911     0.17900
H1043       H  0.20641545  0.28447521  0.44786708     0.14200
H1044       H  0.29714532  0.21418966  0.29882814     0.14000
H1045       H  0.28095494  0.22136275  0.46296078     0.32200
H1046       H  0.22207660  0.27674686  0.28416147     0.35000
C1047       C  0.10673315  0.39934522  0.20813171     0.20600
C1048       C  0.11335417  0.36756991  0.20638356    -0.39300
C1049       C  0.14204404  0.35924697  0.19181756     0.19500
C1050       C  0.16222087  0.38106641  0.17997202     0.22200
C1051       C  0.15571469  0.41254133  0.18192966    -0.39800
C1052       C  0.12731094  0.42076561  0.19636250     0.21000
N1053       N  0.08089521  0.41346694  0.21951517    -0.33100
C1054       C  0.08533750  0.44399191  0.21490279    -0.10700
C1055       C  0.11401523  0.44929110  0.20049038    -0.29500
N1056       N  0.18717404  0.36780379  0.16530609    -0.46100
C1057       C  0.18331471  0.33718995  0.16772069    -0.05300
C1058       C  0.15543131  0.33076072  0.18437167    -0.22700
H1059       H  0.09723475  0.35065243  0.21500610     0.19100
H1060       H  0.17147172  0.42943461  0.17212557     0.17900
H1061       H  0.12369145  0.47112840  0.19333856     0.14200
H1062       H  0.14581453  0.30846790  0.18882883     0.14000
H1063       H  0.06138713  0.40303022  0.22925912     0.32200
H1064       H  0.20557054  0.37901478  0.15349117     0.35000
C1065       C  0.37102583  0.34944914  0.07489873     0.20600
C1066       C  0.40189670  0.35296783  0.06645214    -0.39300
C1067       C  0.41171263  0.38350521  0.06349439     0.19500
C1068       C  0.39202565  0.40820870  0.06851948     0.22200
C1069       C  0.36148989  0.40472232  0.07682741    -0.39800
C1070       C  0.35183108  0.37455118  0.07982860     0.21000
N1071       N  0.35563002  0.32319102  0.07805517    -0.33100
C1072       C  0.32649513  0.33189667  0.08475140    -0.10700
C1073       C  0.32346637  0.36377572  0.08620657    -0.29500
N1074       N  0.40626958  0.43475218  0.06489579    -0.46100
C1075       C  0.43554873  0.42760524  0.05761215    -0.05300
C1076       C  0.43993797  0.39561424  0.05632553    -0.22700
H1077       H  0.41705490  0.33345725  0.06238279     0.19100
H1078       H  0.34625450  0.42422710  0.08053364     0.17900
H1079       H  0.30298616  0.37733368  0.09008441     0.14200
H1080       H  0.46087664  0.38300381  0.05172754     0.14000
H1081       H  0.36415410  0.30084785  0.07443944     0.32200
H1082       H  0.39653307  0.45666765  0.06786538     0.35000
C1083       C  0.38613940  0.08690370  0.03017879     0.20600
C1084       C  0.35723838  0.09517416  0.04343770    -0.39300
C1085       C  0.35240544  0.12628003  0.05240888     0.19500
C1086       C  0.37448984  0.14784107  0.04808633     0.22200
C1087       C  0.40362336  0.13948202  0.03496570    -0.39800
C1088       C  0.40859862  0.10810296  0.02626537     0.21000
N1089       N  0.39671225  0.05841889  0.02249829    -0.33100
C1090       C  0.42630764  0.06103596  0.01386364    -0.10700
C1091       C  0.43454938  0.09183136  0.01567218    -0.29500
N1092       N  0.36435482  0.17569407  0.06039934    -0.46100
C1093       C  0.33582164  0.17150128  0.07314780    -0.05300
C1094       C  0.32770659  0.14101316  0.06858669    -0.22700
H1095       H  0.33999922  0.07838817  0.04767720     0.19100
H1096       H  0.42132810  0.15599650  0.03278147     0.17900
H1097       H  0.45677266  0.10088918  0.01165448     0.14200
H1098       H  0.30677639  0.13080481  0.07717161     0.14000
H1099       H  0.38471303  0.03818013  0.02467798     0.32200
H1100       H  0.37651447  0.19587652  0.06186916     0.35000
C1101       C  0.85706724  0.15083881  0.66388345     0.20600
C1102       C  0.88842300  0.14606521  0.66914331    -0.39300
C1103       C  0.89817936  0.11537574  0.67581121     0.19500
C1104       C  0.87802667  0.09170740  0.67737783     0.22200
C1105       C  0.84702451  0.09648556  0.67247022    -0.39800
C1106       C  0.83745649  0.12673158  0.66550135     0.21000
N1107       N  0.84171842  0.17743493  0.65670959    -0.33100
C1108       C  0.81225006  0.16981618  0.65378556    -0.10700
C1109       C  0.80896487  0.13840880  0.65906837    -0.29500
N1110       N  0.89240059  0.06458018  0.68168571    -0.46100
C1111       C  0.92220083  0.07035206  0.68266259    -0.05300
C1112       C  0.92681182  0.10199052  0.67951828    -0.22700
H1113       H  0.90404615  0.16467209  0.66743167     0.19100
H1114       H  0.83144569  0.07778849  0.67324015     0.17900
H1115       H  0.78828321  0.12579065  0.65893772     0.14200
H1116       H  0.94812012  0.11342077  0.67812734     0.14000
H1117       H  0.85060388  0.19933169  0.65461505     0.32200
H1118       H  0.88241558  0.04313550  0.68246682     0.35000
C1119       C  0.86795978  0.84902716  0.80873393     0.20600
C1120       C  0.89845147  0.85714323  0.80768296    -0.39300
C1121       C  0.90422086  0.88654131  0.79272550     0.19500
C1122       C  0.88132309  0.90605022  0.77957246     0.22200
C1123       C  0.85098485  0.89812409  0.78109307    -0.39800
C1124       C  0.84523787  0.86902756  0.79629837     0.21000
N1125       N  0.85626433  0.82302035  0.82288406    -0.33100
C1126       C  0.82594108  0.82688249  0.81986531    -0.10700
C1127       C  0.81828904  0.85527464  0.80352432    -0.29500
N1128       N  0.89249645  0.93185134  0.76461248    -0.46100
C1129       C  0.92280737  0.92903684  0.76812774    -0.05300
C1130       C  0.93103708  0.90121891  0.78610077    -0.22700
H1131       H  0.91632279  0.84173938  0.81769792     0.19100
H1132       H  0.83310254  0.91354486  0.77115006     0.17900
H1133       H  0.79593022  0.86501972  0.79901627     0.14200
H1134       H  0.95357442  0.89223008  0.79146583     0.14000
H1135       H  0.86802479  0.80458738  0.83580235     0.32200
H1136       H  0.88023902  0.94992556  0.75161968     0.35000
C1137       C  0.09652599  0.89599448  0.77283338     0.20600
C1138       C  0.10098039  0.86415221  0.77843372    -0.39300
C1139       C  0.13001232  0.85465386  0.79109403     0.19500
C1140       C  0.15247557  0.87547217  0.79813751     0.22200
C1141       C  0.14810766  0.90699870  0.79234959    -0.39800
C1142       C  0.11948972  0.91631478  0.77926613     0.21000
N1143       N  0.07072972  0.91136506  0.76348608    -0.33100
C1144       C  0.07767135  0.94157504  0.76400149    -0.10700
C1145       C  0.10790339  0.94532758  0.77342013    -0.29500
N1146       N  0.17694657  0.86152366  0.81364625    -0.46100
C1147       C  0.17041512  0.83146207  0.81660984    -0.05300
C1148       C  0.14144637  0.82606762  0.80223704    -0.22700
H1149       H  0.08300242  0.84811373  0.77441240     0.19100
H1150       H  0.16550060  0.92326055  0.79881579     0.17900
H1151       H  0.11952239  0.96664814  0.77758618     0.14200
H1152       H  0.12959952  0.80467542  0.80274061     0.14000
H1153       H  0.04959846  0.90203274  0.75867206     0.32200
H1154       H  0.19650984  0.87208210  0.82334724     0.35000
C1155       C  0.14602017  0.15890271  0.65310149     0.20600
C1156       C  0.11470975  0.15576002  0.65697627    -0.39300
C1157       C  0.10459702  0.12552916  0.66029623     0.19500
C1158       C  0.12434263  0.10051366  0.65999107     0.22200
C1159       C  0.15548787  0.10362945  0.65572886    -0.39800
C1160       C  0.16552335  0.13372120  0.65228193     0.21000
N1161       N  0.16151848  0.18508009  0.65290580    -0.33100
C1162       C  0.19106948  0.17646333  0.65201976    -0.10700
C1163       C  0.19438293  0.14457408  0.65126550    -0.29500
N1164       N  0.10989897  0.07467049  0.66830203    -0.46100
C1165       C  0.08067419  0.08298190  0.67384181    -0.05300
C1166       C  0.07632177  0.11455627  0.66866387    -0.22700
H1167       H  0.09950688  0.17543858  0.65899031     0.19100
H1168       H  0.17093099  0.08408870  0.65683334     0.17900
H1169       H  0.21515086  0.13113577  0.65209269     0.14200
H1170       H  0.05593655  0.12795139  0.67392089     0.14000
H1171       H  0.15258758  0.20739959  0.65481874     0.32200
H1172       H  0.11966569  0.05286717  0.67230571     0.35000
C1173       C  0.01268386  0.02059026  0.43693921     0.20600
C1174       C  0.02229515  0.03228166  0.47340756    -0.39300
C1175       C  0.00953855  0.01909670  0.50691785     0.19500
C1176       C  0.98875264  0.99605260  0.50421366     0.22200
C1177       C  0.97914335  0.98434041  0.46768633    -0.39800
C1178       C  0.99194168  0.99751051  0.43412765     0.21000
N1179       N  0.02232472  0.02853675  0.40103481    -0.33100
C1180       C  0.00785717  0.01034442  0.37494123    -0.10700
C1181       C  0.98850066  0.99073566  0.39449017    -0.29500
N1182       N  0.97981477  0.98755829  0.54030908    -0.46100
C1183       C  0.99489361  0.00533867  0.56630648    -0.05300
C1184       C  0.01381799  0.02522906  0.54651570    -0.22700
H1185       H  0.03867889  0.05019485  0.47551233     0.19100
H1186       H  0.96305166  0.96615725  0.46558379     0.17900
H1187       H  0.97464388  0.97321414  0.38160985     0.14200
H1188       H  0.02834612  0.04220703  0.55931996     0.14000
H1189       H  0.03854016  0.04475724  0.39476977     0.32200
H1190       H  0.96413834  0.97086266  0.54684086     0.35000
C1191       C  0.02169916  0.01465136  0.00747022     0.20600
C1192       C  0.03731731  0.02465946  0.97425945    -0.39300
C1193       C  0.02433272  0.01736407  0.93768766     0.19500
C1194       C  0.99807216  0.00105542  0.93429021     0.22200
C1195       C  0.98238430  0.99129286  0.96741812    -0.39800
C1196       C  0.99513076  0.99889399  0.00389222     0.21000
N1197       N  0.02922623  0.01838766  0.04569818    -0.33100
C1198       C  0.00699458  0.00509759  0.06631038    -0.10700
C1199       C  0.98541546  0.99284593  0.04120171    -0.29500
N1200       N  0.99074807  0.99650596  0.89623880    -0.46100
C1201       C  0.01242944  0.01030015  0.87530631    -0.05300
C1202       C  0.03366748  0.02358389  0.90013104    -0.22700
H1203       H  0.05800640  0.03714651  0.97665839     0.19100
H1204       H  0.96176844  0.97868678  0.96501260     0.17900
H1205       H  0.96537439  0.98074907  0.04924456     0.14200
H1206       H  0.05353047  0.03583850  0.89174599     0.14000
H1207       H  0.04812184  0.02925392  0.05697724     0.32200
H1208       H  0.97226679  0.98476850  0.88526411     0.35000
C1209       C  0.85326442  0.11870351  0.17671673     0.20600
C1210       C  0.86090110  0.08901266  0.18969193    -0.39300
C1211       C  0.89160916  0.08114966  0.18905767     0.19500
C1212       C  0.91315827  0.10125525  0.17641172     0.22200
C1213       C  0.90548425  0.13108849  0.16356496    -0.39800
C1214       C  0.87466684  0.13905674  0.16432904     0.21000
N1215       N  0.82554703  0.13130249  0.17366627    -0.33100
C1216       C  0.82908314  0.16002148  0.15938897    -0.10700
C1217       C  0.85949890  0.16580120  0.15335155    -0.29500
N1218       N  0.94055646  0.08744934  0.17630059    -0.46100
C1219       C  0.93626773  0.05831771  0.18867909    -0.05300
C1220       C  0.90606783  0.05367249  0.19723409    -0.22700
H1221       H  0.84408788  0.07298585  0.19886864     0.19100
H1222       H  0.92219899  0.14673327  0.15311248     0.17900
H1223       H  0.86915195  0.18659852  0.14220981     0.14200
H1224       H  0.89582747  0.03252203  0.20617276     0.14000
H1225       H  0.80538534  0.12097658  0.18109154     0.32200
H1226       H  0.96061200  0.09676196  0.16650986     0.35000
C1227       C  0.92272511  0.88092252  0.30087290     0.20600
C1228       C  0.90994254  0.86880708  0.33500394    -0.39300
C1229       C  0.88949927  0.84521611  0.32881507     0.19500
C1230       C  0.88262979  0.83419096  0.29157434     0.22200
C1231       C  0.89515212  0.84654618  0.25749391    -0.39800
C1232       C  0.91524301  0.87038918  0.26362242     0.21000
N1233       N  0.94141310  0.90465338  0.29852530    -0.33100
C1234       C  0.94536707  0.90947290  0.25947563    -0.10700
C1235       C  0.92943175  0.88858025  0.23683551    -0.29500
N1236       N  0.86099597  0.81322882  0.29335179    -0.46100
C1237       C  0.85352225  0.81153149  0.33186955    -0.05300
C1238       C  0.87099460  0.83086679  0.35494321    -0.22700
H1239       H  0.91470453  0.87783008  0.36407155     0.19100
H1240       H  0.88887428  0.83891324  0.22826982     0.17900
H1241       H  0.92781330  0.88742422  0.20501951     0.14200
H1242       H  0.86923325  0.83503879  0.38632767     0.14000
H1243       H  0.94983202  0.91761980  0.32186689     0.32200
H1244       H  0.85054501  0.80237455  0.26964463     0.35000
C1245       C  0.12949032  0.92041993  0.30125799     0.20600
C1246       C  0.15742004  0.91439153  0.31917682    -0.39300
C1247       C  0.16663955  0.88353627  0.32041085     0.19500
C1248       C  0.14953812  0.86031240  0.30471166     0.22200
C1249       C  0.12132048  0.86635587  0.28701072    -0.39800
C1250       C  0.11192100  0.89738101  0.28602287     0.21000
N1251       N  0.11566194  0.94786108  0.29728798    -0.33100
C1252       C  0.08889159  0.94253573  0.27962214    -0.10700
C1253       C  0.08562892  0.91123486  0.27214346    -0.29500
N1254       N  0.16322274  0.83281348  0.31065828    -0.46100
C1255       C  0.18893929  0.83876833  0.33070551    -0.05300
C1256       C  0.19181091  0.87012004  0.33721416    -0.22700
H1257       H  0.17081570  0.93240955  0.33176367     0.19100
H1258       H  0.10756590  0.84825442  0.27537968     0.17900
H1259       H  0.06654488  0.90014224  0.25885249     0.14200
H1260       H  0.20962704  0.88150721  0.35296191     0.14000
H1261       H  0.12376885  0.96894707  0.30677000     0.32200
H1262       H  0.15514082  0.81133978  0.30277002     0.35000
C1263       C  0.13768686  0.09874390  0.17604142     0.20600
C1264       C  0.16872299  0.10366562  0.17681371    -0.39300
C1265       C  0.17752134  0.13352250  0.16814411     0.19500
C1266       C  0.15704575  0.15697403  0.15961847     0.22200
C1267       C  0.12579418  0.15196221  0.15864626    -0.39800
C1268       C  0.11690284  0.12180217  0.16696002     0.21000
N1269       N  0.12385180  0.07284888  0.18577357    -0.33100
C1270       C  0.09391707  0.07896041  0.18264942    -0.10700
C1271       C  0.08857868  0.10931696  0.17068114    -0.29500
N1272       N  0.17136201  0.18367517  0.15458873    -0.46100
C1273       C  0.20111918  0.17699767  0.15999674    -0.05300
C1274       C  0.20568614  0.14588558  0.16828306    -0.22700
H1275       H  0.18485190  0.08566814  0.18455565     0.19100
H1276       H  0.10959833  0.17029550  0.15269688     0.17900
H1277       H  0.06703392  0.12116089  0.16769633     0.14200
H1278       H  0.22679141  0.13404579  0.17481532     0.14000
H1279       H  0.13418363  0.05242624  0.19541575     0.32200
H1280       H  0.16147642  0.20517805  0.14887572     0.35000
loop_ 
_geom_bond_atom_site_label_1 
_geom_bond_atom_site_label_2 
_geom_bond_distance 
_geom_bond_site_symmetry_2 
_ccdc_geom_bond_type 
O1           Ni7   1.918       .  S
O1           C22   1.269       .  A
O2          Ni25   1.934       .  S
O2           C11   1.274       .  A
O3           Ni7   1.909   1_455  S
O3          Ni25   1.925   1_565  S
O3          Ni19   1.935       .  S
O3           H26   0.967       .  S
C4           O21   1.280   1_545  A
C4           O13   1.277       .  A
C4         C1180   1.478       .  S
O5          Ni24   1.924       .  S
O5           C11   1.269       .  A
O6          Ni24   1.903   1_565  S
O6            C8   1.267       .  A
Ni7          O10   1.919       .  S
Ni7          O12   1.900   1_565  S
C8           O18   1.271       .  A
C8         C1252   1.473       .  S
O9          Ni25   1.920       .  S
O9           C15   1.271       .  A
O10          C15   1.269   1_665  A
C11        C1270   1.478       .  S
O12          C14   1.272       .  A
O13         Ni24   1.919       .  S
C14          O20   1.281       .  A
C14        C1219   1.472       .  S
C15        C1198   1.470       .  S
H16          O17   0.966       .  S
O17         Ni25   1.906       .  S
O17         Ni19   1.897   1_545  S
O17         Ni24   1.897       .  S
O18         Ni19   1.930       .  S
Ni19         O23   1.905   1_455  S
Ni19         O21   1.934       .  S
O20         Ni25   1.955   1_655  S
C22          O23   1.267       .  A
C22        C1234   1.467       .  S
O27         Ni33   1.939       .  S
O27          C48   1.274       .  A
O28         Ni51   1.925       .  S
O28          C37   1.271       .  A
O29         Ni33   1.898       .  S
O29         Ni51   1.915   1_665  S
O29         Ni45   1.918       .  S
O29          H52   0.966   1_655  S
C30          O47   1.282   1_445  A
C30          O39   1.276       .  A
C30        C1201   1.469       .  S
O31         Ni50   1.924       .  S
O31          C37   1.268       .  A
O32         Ni50   1.897   1_565  S
O32          C34   1.266       .  A
Ni33         O36   1.934       .  S
Ni33         O38   1.906   1_565  S
C34          O44   1.272       .  A
C34        C1144   1.478       .  S
O35         Ni51   1.924       .  S
O35          C41   1.277   1_455  A
O36          C41   1.279   1_565  A
C37        C1165   1.472       .  S
O38          C40   1.269       .  A
O39         Ni50   1.910       .  S
C40          O46   1.276       .  A
C40        C1111   1.485       .  S
C41        C1183   1.481       .  S
H42          O43   0.967   1_655  S
O43         Ni51   1.906       .  S
O43         Ni45   1.907   1_445  S
O43         Ni50   1.895       .  S
O44         Ni45   1.941   1_455  S
Ni45         O49   1.920       .  S
Ni45         O47   1.933       .  S
O46         Ni51   1.949   1_655  S
C48          O49   1.270       .  A
C48        C1129   1.478       .  S
O53         Ni59   1.926       .  S
O53          C74   1.272       .  A
O54         Ni77   1.924       .  S
O54          C63   1.270       .  A
O55         Ni59   1.895       .  S
O55         Ni77   1.903       .  S
O55         Ni71   1.912       .  S
O55          H78   0.966       .  S
C56          O73   1.281       .  A
C56          O65   1.278       .  A
C56        C1039   1.483       .  S
O57         Ni76   1.934       .  S
O57          C63   1.272       .  A
O58         Ni76   1.907       .  S
O58          C60   1.269       .  A
Ni59         O62   1.923       .  S
Ni59         O64   1.908       .  S
C60          O70   1.275       .  A
C60        C1273   1.484       .  S
O61         Ni77   1.928       .  S
O61          C67   1.281       .  A
O62          C67   1.278       .  A
C63        C1093   1.478       .  S
O64          C66   1.269       .  A
O65         Ni76   1.926       .  S
C66          O72   1.274       .  A
C66        C1072   1.484       .  S
C67        C1018   1.474   1_554  S
H68          O69   0.966       .  S
O69         Ni77   1.919       .  S
O69         Ni71   1.912       .  S
O69         Ni76   1.898       .  S
O70         Ni71   1.944       .  S
Ni71         O75   1.920       .  S
Ni71         O73   1.937       .  S
O72         Ni77   1.944       .  S
C74          O75   1.271       .  A
C74        C1057   1.472       .  S
O79         Ni85   1.933       .  S
O79         C100   1.272       .  A
O80        Ni103   1.904       .  S
O80          C89   1.267       .  A
O81         Ni85   1.913       .  S
O81        Ni103   1.905       .  S
O81         Ni97   1.906       .  S
O81         H104   0.966       .  S
C82          O99   1.268       .  A
C82          O91   1.272       .  A
C82        C1021   1.477       .  S
O83        Ni102   1.934       .  S
O83          C89   1.274       .  A
O84        Ni102   1.913       .  S
O84          C86   1.274       .  A
Ni85         O88   1.925       .  S
Ni85         O90   1.913       .  S
C86          O96   1.278       .  A
C86        C1162   1.479       .  S
O87        Ni103   1.928       .  S
O87          C93   1.277       .  A
O88          C93   1.276       .  A
C89        C1003   1.475       .  S
O90          C92   1.269       .  A
O91        Ni102   1.937       .  S
C92          O98   1.269       .  A
C92         C985   1.474       .  S
C93        C1036   1.481       .  S
H94          O95   0.966       .  S
O95        Ni103   1.932       .  S
O95         Ni97   1.914       .  S
O95        Ni102   1.916       .  S
O96         Ni97   1.948       .  S
Ni97        O101   1.911       .  S
Ni97         O99   1.912       .  S
O98        Ni103   1.922       .  S
C100        O101   1.265       .  A
C100        C964   1.469       .  S
O105       Ni111   1.939       .  S
O105        C126   1.274       .  A
O106       Ni129   1.914       .  S
O106        C115   1.269       .  A
O107       Ni111   1.900       .  S
O107       Ni129   1.912       .  S
O107       Ni123   1.921       .  S
O107        H130   0.966       .  S
C108        O125   1.283       .  A
C108        O117   1.278       .  A
C108        C874   1.481       .  S
O109       Ni128   1.929       .  S
O109        C115   1.272       .  A
O110       Ni128   1.904       .  S
O110        C112   1.269       .  A
Ni111       O114   1.935       .  S
Ni111       O116   1.904       .  S
C112        O122   1.279       .  A
C112        C946   1.494       .  S
O113       Ni129   1.930       .  S
O113        C119   1.279       .  A
O114        C119   1.280       .  A
C115       C1255   1.471       .  S
O116        C118   1.267       .  A
O117       Ni128   1.920       .  S
C118        O124   1.274       .  A
C118        C913   1.482       .  S
C119        C895   1.485       .  S
H120        O121   0.966       .  S
O121       Ni129   1.911       .  S
O121       Ni123   1.906       .  S
O121       Ni128   1.892       .  S
O122       Ni123   1.963       .  S
Ni123       O127   1.923       .  S
Ni123       O125   1.940       .  S
O124       Ni129   1.946       .  S
C126        O127   1.272       .  A
C126        C928   1.480       .  S
O131       Ni137   1.932       .  S
O131        C152   1.269       .  A
O132       Ni155   1.920       .  S
O132        C141   1.269       .  A
O133       Ni137   1.908       .  S
O133       Ni155   1.912       .  S
O133       Ni149   1.906       .  S
O133        H156   0.965       .  S
C134        O151   1.276       .  A
C134        O143   1.278       .  A
C134        C892   1.479   1_556  S
O135       Ni154   1.937       .  S
O135        C141   1.273       .  A
O136       Ni154   1.902       .  S
O136        C138   1.268       .  A
Ni137       O140   1.925       .  S
Ni137       O142   1.900       .  S
C138        O148   1.273       .  A
C138        C856   1.473       .  S
O139       Ni155   1.924       .  S
O139        C145   1.279       .  A
O140        C145   1.276       .  A
C141       C1147   1.475       .  S
O142        C144   1.267       .  A
O143       Ni154   1.934       .  S
C144        O150   1.272       .  A
C144        C820   1.475       .  S
C145        C877   1.476       .  S
H146        O147   0.968       .  S
O147       Ni155   1.917       .  S
O147       Ni149   1.917       .  S
O147       Ni154   1.909       .  S
O148       Ni149   1.934       .  S
Ni149       O153   1.925       .  S
Ni149       O151   1.917       .  S
O150       Ni155   1.936       .  S
C152        O153   1.271       .  A
C152        C838   1.475       .  S
O157       Ni163   1.932       .  S
O157        C178   1.272       .  A
O158       Ni181   1.911       .  S
O158        C167   1.270       .  A
O159       Ni163   1.893       .  S
O159       Ni181   1.906   1_545  S
O159       Ni175   1.922       .  S
O159        H182   0.965       .  S
C160        O177   1.285   1_565  A
C160        O169   1.279       .  A
C160        C766   1.478       .  S
O161       Ni180   1.927   1_556  S
O161        C167   1.271       .  A
O162       Ni180   1.908   1_545  S
O162        C164   1.267       .  A
Ni163       O166   1.931       .  S
Ni163       O168   1.907   1_545  S
C164        O174   1.275       .  A
C164       C1090   1.487       .  S
O165       Ni181   1.924       .  S
O165        C171   1.276       .  A
O166        C171   1.278   1_545  A
C167        C859   1.465       .  S
O168        C170   1.270       .  A
O169       Ni180   1.919       .  S
C170        O176   1.277       .  A
C170        C784   1.487       .  S
C171        C748   1.472       .  S
H172        O173   0.967       .  S
O173       Ni181   1.906       .  S
O173       Ni175   1.896   1_565  S
O173       Ni180   1.889   1_556  S
O174       Ni175   1.947   1_554  S
Ni175       O179   1.916   1_556  S
Ni175       O177   1.941   1_556  S
O176       Ni181   1.951       .  S
C178        O179   1.271   1_556  A
C178        C802   1.468   1_556  S
O183       Ni189   1.927       .  S
O183        C204   1.270       .  A
O184       Ni207   1.902       .  S
O184        C193   1.269       .  A
O185       Ni189   1.898       .  S
O185       Ni207   1.900   1_565  S
O185       Ni201   1.907       .  S
O185        H208   0.966       .  S
C186        O203   1.270       .  A
C186        O195   1.275       .  A
C186        C769   1.473       .  S
O187       Ni206   1.939       .  S
O187        C193   1.275       .  A
O188       Ni206   1.903   1_565  S
O188        C190   1.271       .  A
Ni189       O192   1.924       .  S
Ni189       O194   1.911   1_565  S
C190        O200   1.282       .  A
C190        C949   1.487       .  S
O191       Ni207   1.932       .  S
O191        C197   1.278   1_545  A
O192        C197   1.276       .  A
C193       C1000   1.476       .  S
O194        C196   1.269       .  A
O195       Ni206   1.941   1_565  S
C196        O202   1.274       .  A
C196        C733   1.484       .  S
C197        C751   1.473       .  S
H198        O199   0.966       .  S
O199       Ni207   1.925       .  S
O199       Ni201   1.916   1_545  S
O199       Ni206   1.906       .  S
O200       Ni201   1.973       .  S
Ni201       O205   1.918       .  S
Ni201       O203   1.916       .  S
O202       Ni207   1.942       .  S
C204        O205   1.270       .  A
C204        C712   1.469       .  S
O209       Ni215   1.917       .  S
O209        C230   1.269       .  A
O210       Ni233   1.911       .  S
O210        C219   1.268       .  A
O211       Ni215   1.924       .  S
O211       Ni233   1.919       .  S
O211       Ni227   1.934       .  S
O211        H234   0.966       .  S
C212        O229   1.279       .  A
C212        O221   1.274       .  A
C212        C658   1.480       .  S
O213       Ni232   1.927       .  S
O213        C219   1.271       .  A
O214       Ni232   1.913       .  S
O214        C216   1.271       .  A
Ni215       O218   1.918       .  S
Ni215       O220   1.905       .  S
C216        O226   1.275       .  A
C216        C679   1.485       .  S
O217       Ni233   1.926       .  S
O217        C223   1.272       .  A
O218        C223   1.270       .  A
C219        C697   1.472       .  S
O220        C222   1.270       .  A
O221       Ni232   1.915       .  S
C222        O228   1.274       .  A
C222        C715   1.471       .  S
C223        C643   1.480       .  S
H224        O225   0.965       .  S
O225       Ni233   1.915       .  S
O225       Ni227   1.908       .  S
O225       Ni232   1.911       .  S
O226       Ni227   1.941       .  S
Ni227       O231   1.910       .  S
Ni227       O229   1.939       .  S
O228       Ni233   1.934       .  S
C230        O231   1.269       .  A
C230       C1237   1.466       .  S
O235       Ni241   1.933       .  S
O235        C256   1.271       .  A
O236       Ni259   1.939       .  S
O236        C245   1.275       .  A
O237       Ni241   1.905       .  S
O237       Ni259   1.915       .  S
O237       Ni253   1.910       .  S
O237        H260   0.966       .  S
C238        O255   1.280       .  A
C238        O247   1.278       .  A
C238        C640   1.478       .  S
O239       Ni258   1.937       .  S
O239        C245   1.272       .  A
O240       Ni258   1.907       .  S
O240        C242   1.269       .  A
Ni241       O244   1.924       .  S
Ni241       O246   1.908       .  S
C242        O252   1.275       .  A
C242        C604   1.487       .  S
O243       Ni259   1.923       .  S
O243        C249   1.280       .  A
O244        C249   1.277       .  A
C245        C622   1.490       .  S
O246        C248   1.269       .  A
O247       Ni258   1.926       .  S
C248        O254   1.276       .  A
C248        C787   1.486       .  S
C249        C661   1.473   1_556  S
H250        O251   0.967       .  S
O251       Ni259   1.915       .  S
O251       Ni253   1.915       .  S
O251       Ni258   1.902       .  S
O252       Ni253   1.948       .  S
Ni253       O257   1.922       .  S
Ni253       O255   1.930       .  S
O254       Ni259   1.949       .  S
C256        O257   1.270       .  A
C256       C1126   1.472       .  S
O261       Ni267   1.937       .  S
O261        C282   1.271       .  A
O262       Ni285   1.917       .  S
O262        C271   1.272       .  A
O263       Ni267   1.907       .  S
O263       Ni285   1.903       .  S
O263       Ni279   1.899       .  S
O263        H286   0.966       .  S
C264        O281   1.268   1_556  A
C264        O273   1.271   1_556  A
C264        C535   1.475       .  S
O265       Ni284   1.921       .  S
O265        C271   1.270       .  A
O266       Ni284   1.910       .  S
O266        C268   1.272       .  A
Ni267       O270   1.921       .  S
Ni267       O272   1.904       .  S
C268        O278   1.278       .  A
C268        C589   1.482       .  S
O269       Ni285   1.933       .  S
O269        C275   1.281       .  A
O270        C275   1.277       .  A
C271        C571   1.474       .  S
O272        C274   1.268       .  A
O273       Ni284   1.929       .  S
C274        O280   1.275       .  A
C274       C1216   1.478       .  S
C275        C550   1.478       .  S
H276        O277   0.966       .  S
O277       Ni285   1.939       .  S
O277       Ni279   1.924       .  S
O277       Ni284   1.924       .  S
O278       Ni279   1.949       .  S
Ni279       O283   1.916       .  S
Ni279       O281   1.910       .  S
O280       Ni285   1.941       .  S
C282        O283   1.267       .  A
C282        C805   1.472       .  S
O287       Ni293   1.925       .  S
O287        C308   1.271       .  A
O288       Ni311   1.916       .  S
O288        C297   1.267       .  A
O289       Ni293   1.901       .  S
O289       Ni311   1.911       .  S
O289       Ni305   1.919       .  S
O289        H312   0.966       .  S
C290        O307   1.280       .  A
C290        O299   1.276       .  A
C290        C553   1.478       .  S
O291       Ni310   1.933       .  S
O291        C297   1.269       .  A
O292       Ni310   1.898       .  S
O292        C294   1.268       .  A
Ni293       O296   1.924       .  S
Ni293       O298   1.903       .  S
C294        O304   1.274       .  A
C294        C517   1.476       .  S
O295       Ni311   1.923       .  S
O295        C301   1.278       .  A
O296        C301   1.277       .  A
C297        C496   1.472       .  S
O298        C300   1.268       .  A
O299       Ni310   1.916       .  S
C300        O306   1.272       .  A
C300       C1108   1.483       .  S
C301        C532   1.474       .  S
H302        O303   0.966       .  S
O303       Ni311   1.913       .  S
O303       Ni305   1.920       .  S
O303       Ni310   1.904       .  S
O304       Ni305   1.941       .  S
Ni305       O309   1.935       .  S
Ni305       O307   1.935       .  S
O306       Ni311   1.941       .  S
C308        O309   1.273       .  A
C308        C730   1.482       .  S
O313       Ni319   1.935       .  S
O313        C334   1.273   1_554  A
O314       Ni337   1.923       .  S
O314        C323   1.272       .  A
O315       Ni319   1.893       .  S
O315       Ni337   1.911       .  S
O315       Ni331   1.917   1_554  S
O315        H338   0.968       .  S
C316        O333   1.282       .  A
C316        O325   1.279       .  A
C316        C460   1.474       .  S
O317       Ni336   1.931   1_554  S
O317        C323   1.272       .  A
O318       Ni336   1.911       .  S
O318        C320   1.270       .  A
Ni319       O322   1.932       .  S
Ni319       O324   1.906       .  S
C320        O330   1.279       .  A
C320        C625   1.500       .  S
O321       Ni337   1.924       .  S
O321        C327   1.278       .  A
O322        C327   1.279       .  A
C323        C586   1.474       .  S
O324        C326   1.269       .  A
O325       Ni336   1.916       .  S
C326        O332   1.277       .  A
C326       C1075   1.488       .  S
C327        C478   1.472       .  S
H328        O329   0.964       .  S
O329       Ni337   1.905   1_556  S
O329       Ni331   1.907       .  S
O329       Ni336   1.891       .  S
O330       Ni331   1.963       .  S
Ni331       O335   1.926       .  S
Ni331       O333   1.935       .  S
O332       Ni337   1.954       .  S
C334        O335   1.273       .  A
C334        C841   1.479       .  S
O339       Ni345   1.922       .  S
O339        C360   1.270       .  A
O340       Ni363   1.907       .  S
O340        C349   1.270       .  A
O341       Ni345   1.895       .  S
O341       Ni363   1.896       .  S
O341       Ni357   1.906       .  S
O341        H364   0.966       .  S
C342        O359   1.269       .  A
C342        O351   1.273       .  A
C342        C463   1.468       .  S
O343       Ni362   1.932       .  S
O343        C349   1.273       .  A
O344       Ni362   1.900       .  S
O344        C346   1.272       .  A
Ni345       O348   1.923       .  S
Ni345       O350   1.914       .  S
C346        O356   1.283       .  A
C346        C514   1.477       .  S
O347       Ni363   1.933       .  S
O347        C353   1.279       .  A
O348        C353   1.276       .  A
C349        C694   1.473       .  S
O350        C352   1.269       .  A
O351       Ni362   1.934       .  S
C352        O358   1.271       .  A
C352        C931   1.479       .  S
C353        C481   1.474       .  S
H354        O355   0.966       .  S
O355       Ni363   1.930       .  S
O355       Ni357   1.915       .  S
O355       Ni362   1.905       .  S
O356       Ni357   1.965       .  S
Ni357       O361   1.929       .  S
Ni357       O359   1.915       .  S
O358       Ni363   1.929       .  S
C360        O361   1.272       .  A
C360        C982   1.474       .  S
O365       Ni371   1.922       .  S
O365        C386   1.270       .  A
O366       Ni389   1.898       .  S
O366        C375   1.264       .  A
O367       Ni371   1.899       .  S
O367       Ni389   1.894   1_455  S
O367       Ni383   1.911       .  S
O367        H390   0.966       .  S
C368        O385   1.276       .  A
C368        O377   1.270   1_455  A
C368        C424   1.476       .  S
O369       Ni388   1.925       .  S
O369        C375   1.270       .  A
O370       Ni388   1.907       .  S
O370        C372   1.272       .  A
Ni371       O374   1.920       .  S
Ni371       O376   1.908       .  S
C372        O382   1.282       .  A
C372        C676   1.485       .  S
O373       Ni389   1.923       .  S
O373        C379   1.277   1_655  A
O374        C379   1.277       .  A
C375        C568   1.466       .  S
O376        C378   1.268       .  A
O377       Ni388   1.911       .  S
C378        O384   1.269       .  A
C378       C1054   1.476       .  S
C379        C445   1.471       .  S
H380        O381   0.966       .  S
O381       Ni389   1.924   1_455  S
O381       Ni383   1.926       .  S
O381       Ni388   1.908   1_455  S
O382       Ni383   1.958   1_655  S
Ni383       O387   1.935       .  S
Ni383       O385   1.930       .  S
O384       Ni389   1.930   1_455  S
C386        O387   1.275       .  A
C386        C910   1.476       .  S
O391       Ni397   1.927       .  S
O391        C412   1.270       .  A
O392       Ni415   1.917       .  S
O392        C401   1.271       .  A
O393       Ni397   1.892       .  S
O393       Ni415   1.902   1_455  S
O393       Ni409   1.905       .  S
O393        H416   0.966   1_455  S
C394        O411   1.275   1_655  A
C394        O403   1.279       .  A
C394        C442   1.475       .  S
O395       Ni414   1.938       .  S
O395        C401   1.274       .  A
O396       Ni414   1.908       .  S
O396        C398   1.270       .  A
Ni397       O400   1.911       .  S
Ni397       O402   1.902       .  S
C398        O408   1.277       .  A
C398        C607   1.488       .  S
O399       Ni415   1.942       .  S
O399        C405   1.284   1_655  A
O400        C405   1.277       .  A
C401        C499   1.471       .  S
O402        C404   1.267       .  A
O403       Ni414   1.937       .  S
C404        O410   1.273       .  A
C404        C967   1.475       .  S
C405        C427   1.475       .  S
H406        O407   0.966   1_455  S
O407       Ni415   1.917       .  S
O407       Ni409   1.908   1_655  S
O407       Ni414   1.901       .  S
O408       Ni409   1.951   1_655  S
Ni409       O413   1.922       .  S
Ni409       O411   1.910       .  S
O410       Ni415   1.936   1_455  S
C412        O413   1.270       .  A
C412        C823   1.473       .  S
C417        C422   1.385   1_455  A
C417        C418   1.403       .  A
C417        N423   1.350       .  A
C418        C419   1.406       .  A
C418        H429   1.082       .  S
C419        C428   1.373       .  A
C419        C420   1.385   1_455  A
C420        C421   1.401       .  A
C420        N426   1.347       .  A
C421        C422   1.403       .  A
C421        H430   1.082       .  S
C422        C425   1.369       .  A
N423        C424   1.356       .  A
N423        H433   1.045       .  S
C424        C425   1.397   1_455  A
C425        H431   1.083       .  S
N426        C427   1.355   1_655  A
N426        H434   1.045       .  S
C427        C428   1.397       .  A
C428        H432   1.082       .  S
C435        C440   1.384   1_655  A
C435        C436   1.406   1_556  A
C435        N441   1.346       .  A
C436        C437   1.405       .  A
C436        H447   1.082       .  S
C437        C446   1.381       .  A
C437        C438   1.384   1_655  A
C438        C439   1.401       .  A
C438        N444   1.341       .  A
C439        C440   1.400   1_554  A
C439        H448   1.082       .  S
C440        C443   1.375       .  A
N441        C442   1.357       .  A
N441        H451   1.045       .  S
C442        C443   1.395   1_655  A
C443        H449   1.083       .  S
N444        C445   1.355       .  A
N444        H452   1.045       .  S
C445        C446   1.397   1_455  A
C446        H450   1.083       .  S
C453        C458   1.384       .  A
C453        C454   1.411       .  A
C453        N459   1.351       .  A
C454        C455   1.411       .  A
C454        H465   1.082       .  S
C455        C464   1.386       .  A
C455        C456   1.385       .  A
C456        C457   1.395       .  A
C456        N462   1.338       .  A
C457        C458   1.394       .  A
C457        H466   1.083       .  S
C458        C461   1.366       .  A
N459        C460   1.360       .  A
N459        H469   1.044       .  S
C460        C461   1.391       .  A
C461        H467   1.083       .  S
N462        C463   1.351       .  A
N462        H470   1.045       .  S
C463        C464   1.399       .  A
C464        H468   1.082       .  S
C471        C476   1.385       .  A
C471        C472   1.407       .  A
C471        N477   1.347       .  A
C472        C473   1.406       .  A
C472        H483   1.082       .  S
C473        C482   1.382       .  A
C473        C474   1.384       .  A
C474        C475   1.404       .  A
C474        N480   1.345       .  A
C475        C476   1.403       .  A
C475        H484   1.082       .  S
C476        C479   1.379       .  A
N477        C478   1.357       .  A
N477        H487   1.045       .  S
C478        C479   1.394       .  A
C479        H485   1.082       .  S
N480        C481   1.356       .  A
N480        H488   1.045       .  S
C481        C482   1.396       .  A
C482        H486   1.082       .  S
C489        C494   1.385       .  A
C489        C490   1.402       .  A
C489        N495   1.343       .  A
C490        C491   1.401       .  A
C490        H501   1.082       .  S
C491        C500   1.376       .  A
C491        C492   1.385       .  A
C492        C493   1.408       .  A
C492        N498   1.348       .  A
C493        C494   1.407       .  A
C493        H502   1.082       .  S
C494        C497   1.383       .  A
N495        C496   1.354       .  A
N495        H505   1.045       .  S
C496        C497   1.397       .  A
C497        H503   1.082       .  S
N498        C499   1.357       .  A
N498        H506   1.045       .  S
C499        C500   1.393       .  A
C500        H504   1.082       .  S
C507        C512   1.384       .  A
C507        C508   1.397       .  A
C507        N513   1.338       .  A
C508        C509   1.395       .  A
C508        H519   1.083       .  S
C509        C518   1.369       .  A
C509        C510   1.383       .  A
C510        C511   1.412       .  A
C510        N516   1.351       .  A
C511        C512   1.412       .  A
C511        H520   1.082       .  S
C512        C515   1.389       .  A
N513        C514   1.354       .  A
N513        H523   1.045       .  S
C514        C515   1.401       .  A
C515        H521   1.082       .  S
N516        C517   1.360       .  A
N516        H524   1.044       .  S
C517        C518   1.393       .  A
C518        H522   1.083       .  S
C525        C530   1.384       .  A
C525        C526   1.405       .  A
C525        N531   1.343       .  A
C526        C527   1.403       .  A
C526        H537   1.082       .  S
C527        C536   1.381       .  A
C527        C528   1.384       .  A
C528        C529   1.404       .  A
C528        N534   1.343       .  A
C529        C530   1.402       .  A
C529        H538   1.082       .  S
C530        C533   1.380       .  A
N531        C532   1.357       .  A
N531        H541   1.045       .  S
C532        C533   1.395       .  A
C533        H539   1.082       .  S
N534        C535   1.357       .  A
N534        H542   1.045       .  S
C535        C536   1.396       .  A
C536        H540   1.082       .  S
C543        C548   1.385       .  A
C543        C544   1.403       .  A
C543        N549   1.347       .  A
C544        C545   1.404       .  A
C544        H555   1.082       .  S
C545        C554   1.374       .  A
C545        C546   1.384       .  A
C546        C547   1.404       .  A
C546        N552   1.349       .  A
C547        C548   1.406       .  A
C547        H556   1.082       .  S
C548        C551   1.376       .  A
N549        C550   1.356       .  A
N549        H559   1.045       .  S
C550        C551   1.398       .  A
C551        H557   1.082       .  S
N552        C553   1.357       .  A
N552        H560   1.045       .  S
C553        C554   1.397       .  A
C554        H558   1.083       .  S
C561        C566   1.385       .  A
C561        C562   1.404       .  A
C561        N567   1.341       .  A
C562        C563   1.402       .  A
C562        H573   1.082       .  S
C563        C572   1.382       .  A
C563        C564   1.384       .  A
C564        C565   1.405       .  A
C564        N570   1.342       .  A
C565        C566   1.402       .  A
C565        H574   1.082       .  S
C566        C569   1.381       .  A
N567        C568   1.354       .  A
N567        H577   1.045       .  S
C568        C569   1.395       .  A
C569        H575   1.083       .  S
N570        C571   1.357       .  A
N570        H578   1.045       .  S
C571        C572   1.395       .  A
C572        H576   1.082       .  S
C579        C584   1.384       .  A
C579        C580   1.403       .  A
C579        N585   1.342       .  A
C580        C581   1.401       .  A
C580        H591   1.082       .  S
C581        C590   1.378       .  A
C581        C582   1.383       .  A
C582        C583   1.410       .  A
C582        N588   1.349       .  A
C583        C584   1.409       .  A
C583        H592   1.082       .  S
C584        C587   1.387       .  A
N585        C586   1.355       .  A
N585        H595   1.045       .  S
C586        C587   1.398       .  A
C587        H593   1.082       .  S
N588        C589   1.359       .  A
N588        H596   1.045       .  S
C589        C590   1.396       .  A
C590        H594   1.082       .  S
C597        C602   1.383       .  A
C597        C598   1.415       .  A
C597        N603   1.355       .  A
C598        C599   1.415       .  A
C598        H609   1.082       .  S
C599        C608   1.392       .  A
C599        C600   1.383       .  A
C600        C601   1.402       .  A
C600        N606   1.343       .  A
C601        C602   1.401       .  A
C601        H610   1.083       .  S
C602        C605   1.374       .  A
N603        C604   1.362       .  A
N603        H613   1.044       .  S
C604        C605   1.395       .  A
C605        H611   1.083       .  S
N606        C607   1.357       .  A
N606        H614   1.045       .  S
C607        C608   1.403       .  A
C608        H612   1.082       .  S
C615        C620   1.383       .  A
C615        C616   1.406       .  A
C615        N621   1.346       .  A
C616        C617   1.406       .  A
C616        H627   1.082       .  S
C617        C626   1.380       .  A
C617        C618   1.382       .  A
C618        C619   1.417       .  A
C618        N624   1.357       .  A
C619        C620   1.417       .  A
C619        H628   1.082       .  S
C620        C623   1.394       .  A
N621        C622   1.357       .  A
N621        H631   1.045       .  S
C622        C623   1.403       .  A
C623        H629   1.082       .  S
N624        C625   1.363       .  A
N624        H632   1.044       .  S
C625        C626   1.400       .  A
C626        H630   1.083       .  S
C633        C638   1.385       .  A
C633        C634   1.402       .  A
C633        N639   1.345       .  A
C634        C635   1.402       .  A
C634        H645   1.082       .  S
C635        C644   1.374       .  A
C635        C636   1.384       .  A
C636        C637   1.408       .  A
C636        N642   1.350       .  A
C637        C638   1.409       .  A
C637        H646   1.082       .  S
C638        C641   1.381       .  A
N639        C640   1.355       .  A
N639        H649   1.045       .  S
C640        C641   1.400       .  A
C641        H647   1.082       .  S
N642        C643   1.358       .  A
N642        H650   1.045       .  S
C643        C644   1.396       .  A
C644        H648   1.082       .  S
C651        C656   1.384       .  A
C651        C652   1.407       .  A
C651        N657   1.350       .  A
C652        C653   1.408       .  A
C652        H663   1.082       .  S
C653        C662   1.379       .  A
C653        C654   1.385       .  A
C654        C655   1.400       .  A
C654        N660   1.344       .  A
C655        C656   1.401       .  A
C655        H664   1.082       .  S
C656        C659   1.372       .  A
N657        C658   1.358       .  A
N657        H667   1.044       .  S
C658        C659   1.397       .  A
C659        H665   1.083       .  S
N660        C661   1.354       .  A
N660        H668   1.045       .  S
C661        C662   1.399       .  A
C662        H666   1.083       .  S
C669        C674   1.383       .  A
C669        C670   1.406       .  A
C669        N675   1.345       .  A
C670        C671   1.405       .  A
C670        H681   1.082       .  S
C671        C680   1.380       .  A
C671        C672   1.383       .  A
C672        C673   1.410       .  A
C672        N678   1.350       .  A
C673        C674   1.409       .  A
C673        H682   1.082       .  S
C674        C677   1.387       .  A
N675        C676   1.358       .  A
N675        H685   1.045       .  S
C676        C677   1.399       .  A
C677        H683   1.082       .  S
N678        C679   1.359       .  A
N678        H686   1.045       .  S
C679        C680   1.398       .  A
C680        H684   1.082       .  S
C687        C692   1.384       .  A
C687        C688   1.406       .  A
C687        N693   1.345       .  A
C688        C689   1.405       .  A
C688        H699   1.082       .  S
C689        C698   1.383       .  A
C689        C690   1.384       .  A
C690        C691   1.405       .  A
C690        N696   1.343       .  A
C691        C692   1.403       .  A
C691        H700   1.082       .  S
C692        C695   1.381       .  A
N693        C694   1.357       .  A
N693        H703   1.045       .  S
C694        C695   1.395       .  A
C695        H701   1.082       .  S
N696        C697   1.356       .  A
N696        H704   1.045       .  S
C697        C698   1.395       .  A
C698        H702   1.082       .  S
C705        C710   1.385       .  A
C705        C706   1.400       .  A
C705        N711   1.339       .  A
C706        C707   1.399       .  A
C706        H717   1.083       .  S
C707        C716   1.375       .  A
C707        C708   1.384       .  A
C708        C709   1.406       .  A
C708        N714   1.345       .  A
C709        C710   1.405       .  A
C709        H718   1.082       .  S
C710        C713   1.383       .  A
N711        C712   1.354       .  A
N711        H721   1.045       .  S
C712        C713   1.396       .  A
C713        H719   1.082       .  S
N714        C715   1.357       .  A
N714        H722   1.045       .  S
C715        C716   1.394       .  A
C716        H720   1.083       .  S
C723        C728   1.383       .  A
C723        C724   1.414       .  A
C723        N729   1.354       .  A
C724        C725   1.414       .  A
C724        H735   1.082       .  S
C725        C734   1.391       .  A
C725        C726   1.384       .  A
C726        C727   1.399       .  A
C726        N732   1.340       .  A
C727        C728   1.398       .  A
C727        H736   1.083       .  S
C728        C731   1.371       .  A
N729        C730   1.361       .  A
N729        H739   1.044       .  S
C730        C731   1.394       .  A
C731        H737   1.083       .  S
N732        C733   1.355       .  A
N732        H740   1.045       .  S
C733        C734   1.403       .  A
C734        H738   1.082       .  S
C741        C746   1.385   1_565  A
C741        C742   1.405       .  A
C741        N747   1.345       .  A
C742        C743   1.405       .  A
C742        H753   1.082       .  S
C743        C752   1.380       .  A
C743        C744   1.385   1_565  A
C744        C745   1.405       .  A
C744        N750   1.345       .  A
C745        C746   1.404       .  A
C745        H754   1.082       .  S
C746        C749   1.380       .  A
N747        C748   1.356       .  A
N747        H757   1.045       .  S
C748        C749   1.395   1_565  A
C749        H755   1.082       .  S
N750        C751   1.356   1_545  A
N750        H758   1.045       .  S
C751        C752   1.396       .  A
C752        H756   1.082       .  S
C759        C764   1.384       .  A
C759        C760   1.400       .  A
C759        N765   1.339       .  A
C760        C761   1.399       .  A
C760        H771   1.083       .  S
C761        C770   1.374       .  A
C761        C762   1.384       .  A
C762        C763   1.410       .  A
C762        N768   1.349       .  A
C763        C764   1.409       .  A
C763        H772   1.082   1_565  S
C764        C767   1.388       .  A
N765        C766   1.356       .  A
N765        H775   1.045       .  S
C766        C767   1.399       .  A
C767        H773   1.082   1_565  S
N768        C769   1.358       .  A
N768        H776   1.045   1_565  S
C769        C770   1.393       .  A
C770        H774   1.083       .  S
C777        C782   1.383       .  A
C777        C778   1.414       .  A
C777        N783   1.355       .  A
C778        C779   1.414       .  A
C778        H789   1.082       .  S
C779        C788   1.391       .  A
C779        C780   1.384       .  A
C780        C781   1.401       .  A
C780        N786   1.342       .  A
C781        C782   1.400       .  A
C781        H790   1.083       .  S
C782        C785   1.372       .  A
N783        C784   1.361       .  A
N783        H793   1.044       .  S
C784        C785   1.396       .  A
C785        H791   1.083       .  S
N786        C787   1.356       .  A
N786        H794   1.045       .  S
C787        C788   1.403       .  A
C788        H792   1.082       .  S
C795        C800   1.384       .  A
C795        C796   1.404       .  A
C795        N801   1.342       .  A
C796        C797   1.403       .  A
C796        H807   1.082       .  S
C797        C806   1.380       .  A
C797        C798   1.384       .  A
C798        C799   1.406       .  A
C798        N804   1.345       .  A
C799        C800   1.404       .  A
C799        H808   1.082       .  S
C800        C803   1.382       .  A
N801        C802   1.355       .  A
N801        H811   1.045       .  S
C802        C803   1.394       .  A
C803        H809   1.082       .  S
N804        C805   1.356       .  A
N804        H812   1.045       .  S
C805        C806   1.395       .  A
C806        H810   1.082       .  S
C813        C818   1.384       .  A
C813        C814   1.400       .  A
C813        N819   1.340       .  A
C814        C815   1.399       .  A
C814        H825   1.083       .  S
C815        C824   1.374       .  A
C815        C816   1.385       .  A
C816        C817   1.409       .  A
C816        N822   1.348       .  A
C817        C818   1.408       .  A
C817        H826   1.082       .  S
C818        C821   1.386       .  A
N819        C820   1.355       .  A
N819        H829   1.045       .  S
C820        C821   1.399       .  A
C821        H827   1.082       .  S
N822        C823   1.357       .  A
N822        H830   1.044       .  S
C823        C824   1.394       .  A
C824        H828   1.083       .  S
C831        C836   1.384       .  A
C831        C832   1.405       .  A
C831        N837   1.345       .  A
C832        C833   1.404       .  A
C832        H843   1.083       .  S
C833        C842   1.379       .  A
C833        C834   1.384       .  A
C834        C835   1.408       .  A
C834        N840   1.349       .  A
C835        C836   1.408       .  A
C835        H844   1.082       .  S
C836        C839   1.385       .  A
N837        C838   1.356       .  A
N837        H847   1.045       .  S
C838        C839   1.397       .  A
C839        H845   1.082       .  S
N840        C841   1.357       .  A
N840        H848   1.044       .  S
C841        C842   1.397       .  A
C842        H846   1.083       .  S
C849        C854   1.384       .  A
C849        C850   1.407       .  A
C849        N855   1.347       .  A
C850        C851   1.406       .  A
C850        H861   1.082       .  S
C851        C860   1.383       .  A
C851        C852   1.385       .  A
C852        C853   1.399       .  A
C852        N858   1.338       .  A
C853        C854   1.397       .  A
C853        H862   1.083       .  S
C854        C857   1.372       .  A
N855        C856   1.358       .  A
N855        H865   1.045       .  S
C856        C857   1.394       .  A
C857        H863   1.083       .  S
N858        C859   1.353       .  A
N858        H866   1.045       .  S
C859        C860   1.396       .  A
C860        H864   1.082       .  S
C867        C872   1.384       .  A
C867        C868   1.403       .  A
C867        N873   1.340       .  A
C868        C869   1.399       .  A
C868        H879   1.082       .  S
C869        C878   1.379       .  A
C869        C870   1.383       .  A
C870        C871   1.410       .  A
C870        N876   1.345       .  A
C871        C872   1.408       .  A
C871        H880   1.082       .  S
C872        C875   1.388       .  A
N873        C874   1.356       .  A
N873        H883   1.045       .  S
C874        C875   1.400       .  A
C875        H881   1.082       .  S
N876        C877   1.359       .  A
N876        H884   1.045       .  S
C877        C878   1.394       .  A
C878        H882   1.082       .  S
C885        C890   1.384       .  A
C885        C886   1.408       .  A
C885        N891   1.347       .  A
C886        C887   1.408       .  A
C886        H897   1.082       .  S
C887        C896   1.385       .  A
C887        C888   1.384       .  A
C888        C889   1.405       .  A
C888        N894   1.345       .  A
C889        C890   1.403       .  A
C889        H898   1.082       .  S
C890        C893   1.379       .  A
N891        C892   1.358       .  A
N891        H901   1.045       .  S
C892        C893   1.396       .  A
C893        H899   1.082       .  S
N894        C895   1.358       .  A
N894        H902   1.045       .  S
C895        C896   1.400       .  A
C896        H900   1.082       .  S
C903        C908   1.384       .  A
C903        C904   1.413       .  A
C903        N909   1.351       .  A
C904        C905   1.412       .  A
C904        H915   1.082       .  S
C905        C914   1.391       .  A
C905        C906   1.383       .  A
C906        C907   1.400       .  A
C906        N912   1.339       .  A
C907        C908   1.398       .  A
C907        H916   1.083       .  S
C908        C911   1.373       .  A
N909        C910   1.359       .  A
N909        H919   1.044       .  S
C910        C911   1.394       .  A
C911        H917   1.083       .  S
N912        C913   1.355       .  A
N912        H920   1.045       .  S
C913        C914   1.402       .  A
C914        H918   1.082       .  S
C921        C926   1.384       .  A
C921        C922   1.410       .  A
C921        N927   1.351       .  A
C922        C923   1.410       .  A
C922        H933   1.082       .  S
C923        C932   1.385       .  A
C923        C924   1.384       .  A
C924        C925   1.402       .  A
C924        N930   1.343       .  A
C925        C926   1.402       .  A
C925        H934   1.082       .  S
C926        C929   1.376       .  A
N927        C928   1.359       .  A
N927        H937   1.044       .  S
C928        C929   1.395       .  A
C929        H935   1.083       .  S
N930        C931   1.356       .  A
N930        H938   1.045       .  S
C931        C932   1.399       .  A
C932        H936   1.082       .  S
C939        C944   1.382       .  A
C939        C940   1.419       .  A
C939        N945   1.358       .  A
C940        C941   1.419       .  A
C940        H951   1.082       .  S
C941        C950   1.397       .  A
C941        C942   1.383       .  A
C942        C943   1.398       .  A
C942        N948   1.339       .  A
C943        C944   1.398       .  A
C943        H952   1.083       .  S
C944        C947   1.371       .  A
N945        C946   1.364       .  A
N945        H955   1.044       .  S
C946        C947   1.395       .  A
C947        H953   1.083       .  S
N948        C949   1.354       .  A
N948        H956   1.045       .  S
C949        C950   1.406       .  A
C950        H954   1.082       .  S
C957        C962   1.384       .  A
C957        C958   1.409       .  A
C957        N963   1.349       .  A
C958        C959   1.409       .  A
C958        H969   1.082       .  S
C959        C968   1.386       .  A
C959        C960   1.384       .  A
C960        C961   1.398       .  A
C960        N966   1.339       .  A
C961        C962   1.397       .  A
C961        H970   1.083       .  S
C962        C965   1.371       .  A
N963        C964   1.358       .  A
N963        H973   1.045       .  S
C964        C965   1.390       .  A
C965        H971   1.083       .  S
N966        C967   1.355       .  A
N966        H974   1.045       .  S
C967        C968   1.399       .  A
C968        H972   1.082       .  S
C975        C980   1.384       .  A
C975        C976   1.408       .  A
C975        N981   1.351       .  A
C976        C977   1.409       .  A
C976        H987   1.082       .  S
C977        C986   1.381       .  A
C977        C978   1.385       .  A
C978        C979   1.399       .  A
C978        N984   1.343       .  A
C979        C980   1.400       .  A
C979        H988   1.083       .  S
C980        C983   1.370       .  A
N981        C982   1.358       .  A
N981        H991   1.044       .  S
C982        C983   1.393       .  A
C983        H989   1.083       .  S
N984        C985   1.354       .  A
N984        H992   1.045       .  S
C985        C986   1.398       .  A
C986        H990   1.082       .  S
C993        C998   1.384       .  A
C993        C994   1.405       .  A
C993        N999   1.345       .  A
C994        C995   1.404       .  A
C994       H1005   1.082       .  S
C995       C1004   1.380       .  A
C995        C996   1.385       .  A
C996        C997   1.406       .  A
C996       N1002   1.346       .  A
C997        C998   1.405       .  A
C997       H1006   1.082       .  S
C998       C1001   1.381       .  A
N999       C1000   1.356       .  A
N999       H1009   1.045       .  S
C1000      C1001   1.397       .  A
C1001      H1007   1.082       .  S
N1002      C1003   1.356       .  A
N1002      H1010   1.045       .  S
C1003      C1004   1.396       .  A
C1004      H1008   1.082       .  S
C1011      C1016   1.384       .  A
C1011      C1012   1.406       .  A
C1011      N1017   1.343       .  A
C1012      C1013   1.404       .  A
C1012      H1023   1.082       .  S
C1013      C1022   1.383       .  A
C1013      C1014   1.384       .  A
C1014      C1015   1.404       .  A
C1014      N1020   1.342       .  A
C1015      C1016   1.402       .  A
C1015      H1024   1.082       .  S
C1016      C1019   1.381       .  A
N1017      C1018   1.357       .  A
N1017      H1027   1.045       .  S
C1018      C1019   1.395       .  A
C1019      H1025   1.082       .  S
N1020      C1021   1.356       .  A
N1020      H1028   1.045       .  S
C1021      C1022   1.398       .  A
C1022      H1026   1.082       .  S
C1029      C1034   1.384       .  A
C1029      C1030   1.406       .  A
C1029      N1035   1.349       .  A
C1030      C1031   1.407       .  A
C1030      H1041   1.082       .  S
C1031      C1040   1.379       .  A
C1031      C1032   1.384       .  A
C1032      C1033   1.405       .  A
C1032      N1038   1.348       .  A
C1033      C1034   1.406       .  A
C1033      H1042   1.082       .  S
C1034      C1037   1.378       .  A
N1035      C1036   1.358       .  A
N1035      H1045   1.045       .  S
C1036      C1037   1.397       .  A
C1037      H1043   1.082       .  S
N1038      C1039   1.357       .  A
N1038      H1046   1.045       .  S
C1039      C1040   1.399       .  A
C1040      H1044   1.082       .  S
C1047      C1052   1.384       .  A
C1047      C1048   1.411       .  A
C1047      N1053   1.349       .  A
C1048      C1049   1.410       .  A
C1048      H1059   1.082       .  S
C1049      C1058   1.388       .  A
C1049      C1050   1.385       .  A
C1050      C1051   1.398       .  A
C1050      N1056   1.337       .  A
C1051      C1052   1.396       .  A
C1051      H1060   1.083       .  S
C1052      C1055   1.372       .  A
N1053      C1054   1.360       .  A
N1053      H1063   1.045       .  S
C1054      C1055   1.393       .  A
C1055      H1061   1.083       .  S
N1056      C1057   1.353       .  A
N1056      H1064   1.045       .  S
C1057      C1058   1.400       .  A
C1058      H1062   1.082       .  S
C1065      C1070   1.383       .  A
C1065      C1066   1.416       .  A
C1065      N1071   1.352       .  A
C1066      C1067   1.415       .  A
C1066      H1077   1.082       .  S
C1067      C1076   1.396       .  A
C1067      C1068   1.383       .  A
C1068      C1069   1.400       .  A
C1068      N1074   1.338       .  A
C1069      C1070   1.398       .  A
C1069      H1078   1.083       .  S
C1070      C1073   1.375       .  A
N1071      C1072   1.362       .  A
N1071      H1081   1.044       .  S
C1072      C1073   1.394       .  A
C1073      H1079   1.083       .  S
N1074      C1075   1.356       .  A
N1074      H1082   1.045       .  S
C1075      C1076   1.405       .  A
C1076      H1080   1.082       .  S
C1083      C1088   1.384       .  A
C1083      C1084   1.403       .  A
C1083      N1089   1.343       .  A
C1084      C1085   1.401       .  A
C1084      H1095   1.083       .  S
C1085      C1094   1.376       .  A
C1085      C1086   1.384       .  A
C1086      C1087   1.412       .  A
C1086      N1092   1.352       .  A
C1087      C1088   1.412       .  A
C1087      H1096   1.082       .  S
C1088      C1091   1.389       .  A
N1089      C1090   1.357       .  A
N1089      H1099   1.045       .  S
C1090      C1091   1.401       .  A
C1091      H1097   1.082       .  S
N1092      C1093   1.359       .  A
N1092      H1100   1.045       .  S
C1093      C1094   1.394       .  A
C1094      H1098   1.083       .  S
C1101      C1106   1.383       .  A
C1101      C1102   1.415       .  A
C1101      N1107   1.354       .  A
C1102      C1103   1.416       .  A
C1102      H1113   1.082       .  S
C1103      C1112   1.393       .  A
C1103      C1104   1.384       .  A
C1104      C1105   1.399       .  A
C1104      N1110   1.339       .  A
C1105      C1106   1.397       .  A
C1105      H1114   1.083       .  S
C1106      C1109   1.371       .  A
N1107      C1108   1.362       .  A
N1107      H1117   1.045       .  S
C1108      C1109   1.393       .  A
C1109      H1115   1.083       .  S
N1110      C1111   1.355       .  A
N1110      H1118   1.045       .  S
C1111      C1112   1.404       .  A
C1112      H1116   1.082       .  S
C1119      C1124   1.384       .  A
C1119      C1120   1.410       .  A
C1119      N1125   1.349       .  A
C1120      C1121   1.409       .  A
C1120      H1131   1.082       .  S
C1121      C1130   1.386       .  A
C1121      C1122   1.384       .  A
C1122      C1123   1.402       .  A
C1122      N1128   1.342       .  A
C1123      C1124   1.400       .  A
C1123      H1132   1.082       .  S
C1124      C1127   1.376       .  A
N1125      C1126   1.358       .  A
N1125      H1135   1.045       .  S
C1126      C1127   1.392       .  A
C1127      H1133   1.082       .  S
N1128      C1129   1.355       .  A
N1128      H1136   1.045       .  S
C1129      C1130   1.399       .  A
C1130      H1134   1.082       .  S
C1137      C1142   1.384       .  A
C1137      C1138   1.411       .  A
C1137      N1143   1.352       .  A
C1138      C1139   1.412       .  A
C1138      H1149   1.082       .  S
C1139      C1148   1.388       .  A
C1139      C1140   1.385       .  A
C1140      C1141   1.398       .  A
C1140      N1146   1.340       .  A
C1141      C1142   1.397       .  A
C1141      H1150   1.083       .  S
C1142      C1145   1.369       .  A
N1143      C1144   1.360       .  A
N1143      H1153   1.045       .  S
C1144      C1145   1.393       .  A
C1145      H1151   1.083       .  S
N1146      C1147   1.353       .  A
N1146      H1154   1.045       .  S
C1147      C1148   1.400       .  A
C1148      H1152   1.082       .  S
C1155      C1160   1.384       .  A
C1155      C1156   1.409       .  A
C1155      N1161   1.347       .  A
C1156      C1157   1.408       .  A
C1156      H1167   1.082       .  S
C1157      C1166   1.387       .  A
C1157      C1158   1.384       .  A
C1158      C1159   1.403       .  A
C1158      N1164   1.341       .  A
C1159      C1160   1.401       .  A
C1159      H1168   1.082       .  S
C1160      C1163   1.379       .  A
N1161      C1162   1.359       .  A
N1161      H1171   1.045       .  S
C1162      C1163   1.395       .  A
C1163      H1169   1.082       .  S
N1164      C1165   1.355       .  A
N1164      H1172   1.045       .  S
C1165      C1166   1.397       .  A
C1166      H1170   1.082       .  S
C1173      C1178   1.384   1_445  A
C1173      C1174   1.405       .  A
C1173      N1179   1.342       .  A
C1174      C1175   1.403       .  A
C1174      H1185   1.082       .  S
C1175      C1184   1.382       .  A
C1175      C1176   1.384   1_445  A
C1176      C1177   1.407       .  A
C1176      N1182   1.345       .  A
C1177      C1178   1.405       .  A
C1177      H1186   1.082       .  S
C1178      C1181   1.385       .  A
N1179      C1180   1.357       .  A
N1179      H1189   1.045       .  S
C1180      C1181   1.398   1_445  A
C1181      H1187   1.083       .  S
N1182      C1183   1.358   1_565  A
N1182      H1190   1.045       .  S
C1183      C1184   1.398   1_655  A
C1184      H1188   1.083       .  S
C1191      C1196   1.385   1_445  A
C1191      C1192   1.402   1_554  A
C1191      N1197   1.348       .  A
C1192      C1193   1.405       .  A
C1192      H1203   1.082       .  S
C1193      C1202   1.372       .  A
C1193      C1194   1.385   1_455  A
C1194      C1195   1.398   1_545  A
C1194      N1200   1.345   1_545  A
C1195      C1196   1.401   1_556  A
C1195      H1204   1.082       .  S
C1196      C1199   1.368       .  A
N1197      C1198   1.356       .  A
N1197      H1207   1.045       .  S
C1198      C1199   1.395   1_445  A
C1199      H1205   1.083       .  S
N1200      C1201   1.353   1_665  A
N1200      H1208   1.045       .  S
C1201      C1202   1.397       .  A
C1202      H1206   1.083       .  S
C1209      C1214   1.384       .  A
C1209      C1210   1.402       .  A
C1209      N1215   1.341       .  A
C1210      C1211   1.400       .  A
C1210      H1221   1.083       .  S
C1211      C1220   1.375       .  A
C1211      C1212   1.384       .  A
C1212      C1213   1.407       .  A
C1212      N1218   1.346       .  A
C1213      C1214   1.406       .  A
C1213      H1222   1.082       .  S
C1214      C1217   1.384       .  A
N1215      C1216   1.357       .  A
N1215      H1225   1.045       .  S
C1216      C1217   1.398       .  A
C1217      H1223   1.082       .  S
N1218      C1219   1.357       .  A
N1218      H1226   1.045       .  S
C1219      C1220   1.395       .  A
C1220      H1224   1.083       .  S
C1227      C1232   1.385       .  A
C1227      C1228   1.402       .  A
C1227      N1233   1.345       .  A
C1228      C1229   1.403       .  A
C1228      H1239   1.083       .  S
C1229      C1238   1.374       .  A
C1229      C1230   1.386       .  A
C1230      C1231   1.400       .  A
C1230      N1236   1.344       .  A
C1231      C1232   1.401       .  A
C1231      H1240   1.082       .  S
C1232      C1235   1.373       .  A
N1233      C1234   1.355       .  A
N1233      H1243   1.045       .  S
C1234      C1235   1.394       .  A
C1235      H1241   1.083       .  S
N1236      C1237   1.353       .  A
N1236      H1244   1.045       .  S
C1237      C1238   1.396       .  A
C1238      H1242   1.083       .  S
C1245      C1250   1.384       .  A
C1245      C1246   1.399       .  A
C1245      N1251   1.339       .  A
C1246      C1247   1.398       .  A
C1246      H1257   1.083       .  S
C1247      C1256   1.373       .  A
C1247      C1248   1.384       .  A
C1248      C1249   1.408       .  A
C1248      N1254   1.347       .  A
C1249      C1250   1.407       .  A
C1249      H1258   1.082       .  S
C1250      C1253   1.384       .  A
N1251      C1252   1.354       .  A
N1251      H1261   1.045       .  S
C1252      C1253   1.398       .  A
C1253      H1259   1.082       .  S
N1254      C1255   1.357       .  A
N1254      H1262   1.045       .  S
C1255      C1256   1.393       .  A
C1256      H1260   1.083       .  S
C1263      C1268   1.384       .  A
C1263      C1264   1.402       .  A
C1263      N1269   1.341       .  A
C1264      C1265   1.400       .  A
C1264      H1275   1.083       .  S
C1265      C1274   1.375       .  A
C1265      C1266   1.383       .  A
C1266      C1267   1.412       .  A
C1266      N1272   1.351       .  A
C1267      C1268   1.412       .  A
C1267      H1276   1.082       .  S
C1268      C1271   1.390       .  A
N1269      C1270   1.355       .  A
N1269      H1279   1.045       .  S
C1270      C1271   1.400       .  A
C1271      H1277   1.082       .  S
N1272      C1273   1.360       .  A
N1272      H1280   1.044       .  S
C1273      C1274   1.396       .  A
C1274      H1278   1.083       .  S
