geometry optimzed in LAMMPS
_audit_creation_date              2020-12-01 
_audit_creation_method            'lammps2cif' 
_symmetry_space_group_name_H-M    'P1' 
_symmetry_Int_Tables_number       1 
_symmetry_cell_setting            triclinic 
loop_ 
_symmetry_equiv_pos_as_xyz 
  x,y,z 
_cell_length_a                    39.1358513 
_cell_length_b                    37.8737207924204 
_cell_length_c                    40.838389706284154 
_cell_angle_alpha                 90.20483977192131 
_cell_angle_beta                  91.03266177239139 
_cell_angle_gamma                 90.40255891696879 
loop_ 
_atom_site_label 
_atom_site_type_symbol 
_atom_site_fract_x 
_atom_site_fract_y 
_atom_site_fract_z 
_atom_site_charge 
Zr1        Zr  0.75512586  0.77255912  0.69462662     2.17500
O2          O  0.73818251  0.75329896  0.63954443    -0.51700
O3          O  0.78354427  0.82439442  0.67176925    -0.74900
O4          O  0.70243446  0.80029788  0.67441873    -0.81700
O5          O  0.82940644  0.70663378  0.69637130    -0.83400
O6          O  0.67349442  0.82139872  0.71805004    -0.79000
O7          O  0.79191778  0.73380899  0.66166916    -0.90700
O8          O  0.80936223  0.85372384  0.71422879    -0.76600
O9          O  0.74938023  0.81945183  0.73356456    -0.86100
O10         O  0.80755494  0.77563207  0.72529626    -0.85800
O11         O  0.70711152  0.75761470  0.72851478    -0.72600
O12         O  0.76067956  0.71611721  0.72067973    -0.84700
Zr13       Zr  0.76101754  0.75061524  0.82487720     2.26400
Zr14       Zr  0.70286183  0.80435014  0.76848164     2.06300
Zr15       Zr  0.81278363  0.71966082  0.75207367     2.10000
Zr16       Zr  0.80133524  0.82183549  0.76438371     1.78800
O17         O  0.81574798  0.65568413  0.74671163    -0.93500
O18         O  0.78211040  0.88189950  0.77464148    -0.41300
O19         O  0.80853042  0.76644306  0.79148865    -0.78000
O20         O  0.75515974  0.80773076  0.79986481    -0.96700
O21         O  0.70846503  0.74837276  0.79457605    -0.90000
O22         O  0.76603165  0.70372857  0.78594366    -0.92800
C23         C  0.80065886  0.85046809  0.68404264     1.01000
C24         C  0.81765205  0.71349163  0.66757370     1.13900
C25         C  0.67675848  0.81596869  0.68715967     1.04700
O26         O  0.69737042  0.86825180  0.77270660    -0.95000
O27         O  0.68641249  0.81517914  0.82548308    -0.90700
O28         O  0.71911937  0.78041167  0.85867488    -0.83800
C29         C  0.69522683  0.80302637  0.85381918     1.11300
O30         O  0.68565339  0.67551283  0.70759871    -0.96900
Zr31       Zr  0.71365679  0.70248819  0.75535006     1.88900
O32         O  0.73416143  0.69806692  0.84699596    -0.73600
O33         O  0.64160512  0.79498922  0.77446558    -0.52800
O34         O  0.65185773  0.70758638  0.75950386    -0.97500
O35         O  0.72527889  0.64021019  0.74578853    -0.54700
O36         O  0.70028424  0.67479338  0.80640592    -0.74100
C37         C  0.71191818  0.67590541  0.83582776     0.98300
O38         O  0.77765748  0.77253776  0.87916940    -0.62900
O39         O  0.87455296  0.72727688  0.74939438    -0.57700
O40         O  0.81477008  0.72572049  0.84548085    -0.94400
O41         O  0.84185344  0.70153371  0.80208128    -0.92800
O42         O  0.86338245  0.82095266  0.76102025    -0.93200
O43         O  0.83133381  0.85195009  0.80926598    -0.92000
C44         C  0.83923763  0.70821910  0.83275130     1.17100
H45         H  0.82664646  0.78007252  0.71125897     0.33000
H46         H  0.75371350  0.82578766  0.81649731     0.43900
H47         H  0.77051601  0.68135150  0.79638648     0.37400
H48         H  0.68626997  0.75537730  0.71570336     0.33900
H49         H  0.80017130  0.89733950  0.76567397     0.25700
H50         H  0.63143738  0.81868242  0.77164497     0.31600
H51         H  0.64358536  0.68310166  0.76273876     0.37500
H52         H  0.87015735  0.79838905  0.77135297     0.32000
H53         H  0.88305519  0.70433439  0.74130986     0.30900
H54         H  0.83901419  0.64956284  0.75463647     0.32500
H55         H  0.73501295  0.63143344  0.76674157     0.31500
H56         H  0.81790849  0.84623186  0.82889014     0.35500
H57         H  0.78013284  0.75133192  0.89311570     0.28200
H58         H  0.73716848  0.77503782  0.62616430     0.32500
H59         H  0.67325147  0.69495996  0.69658109     0.35300
H60         H  0.87822883  0.74385265  0.73108537     0.27900
H61         H  0.80110927  0.78214978  0.87705135     0.40800
H62         H  0.70196622  0.87397657  0.79605201     0.30900
H63         H  0.76238083  0.88514233  0.75947471     0.38500
H64         H  0.74474516  0.64015230  0.73063685     0.30300
H65         H  0.63413790  0.78161020  0.75469868     0.30400
H66         H  0.71419565  0.74503756  0.64103454     0.30700
C67         C  0.89004314  0.38484213  0.50488970    -0.02800
C68         C  0.09848322  0.39763667  0.49677639    -0.02800
C69         C  0.89246683  0.60072408  0.51496509    -0.02800
C70         C  0.10065187  0.61333156  0.49317500    -0.02800
C71         C  0.40413654  0.49968295  0.89642600    -0.02800
C72         C  0.38638211  0.50301540  0.09468162    -0.02800
C73         C  0.61270741  0.51038650  0.90772351    -0.02800
C74         C  0.59382563  0.49348320  0.10000272    -0.02800
C75         C  0.51322593  0.90171196  0.40393252    -0.02800
C76         C  0.50356393  0.11659184  0.40438258    -0.02800
C77         C  0.50218016  0.88349413  0.59996438    -0.02800
C78         C  0.49672561  0.10175967  0.59979870    -0.02800
Zr79       Zr  0.25015160  0.23152147  0.67792653     2.17500
O80         O  0.26685791  0.23753311  0.62087511    -0.51700
O81         O  0.21617667  0.18133593  0.65695145    -0.74900
O82         O  0.30247087  0.20021306  0.66441843    -0.81700
O83         O  0.18559263  0.30566146  0.66845106    -0.83400
O84         O  0.32941104  0.18092371  0.71063214    -0.79000
O85         O  0.22271749  0.27227433  0.63962172    -0.90700
O86         O  0.18537489  0.15896968  0.69864152    -0.76600
O87         O  0.25233678  0.18852347  0.72036644    -0.86100
O88         O  0.19650478  0.23439621  0.70464402    -0.85800
O89         O  0.29751407  0.24948536  0.71290660    -0.72600
O90         O  0.24563529  0.29093541  0.69839642    -0.84700
Zr91       Zr  0.24169475  0.26872722  0.80418856     2.26400
Zr92       Zr  0.29856183  0.20657437  0.75601473     2.06300
Zr93       Zr  0.19243540  0.29302264  0.72629260     2.10000
Zr94       Zr  0.19927721  0.19229368  0.74766801     1.78800
O95         O  0.18775915  0.35709270  0.72521264    -0.93500
O96         O  0.21236893  0.13122036  0.76140425    -0.41300
O97         O  0.19457378  0.25062050  0.76937095    -0.78000
O98         O  0.24528168  0.20880035  0.78426372    -0.96700
O99         O  0.29506623  0.26554943  0.77725034    -0.90000
O100        O  0.23863142  0.31171995  0.76173565    -0.92800
C101        C  0.19441238  0.15931465  0.66863758     1.01000
C102        C  0.19939368  0.29584081  0.64169355     1.13900
C103        C  0.32685178  0.18398521  0.67937758     1.04700
O104        O  0.30268472  0.14320795  0.76523691    -0.95000
O105        O  0.31028948  0.19650532  0.81365598    -0.90700
O106        O  0.27691461  0.23424227  0.84219359    -0.83800
C107        C  0.29933877  0.20972837  0.84040656     1.11300
O108        O  0.31961293  0.32768380  0.68490717    -0.96900
Zr109      Zr  0.29174501  0.30794558  0.73453287     1.88900
O110        O  0.27270058  0.32087607  0.82419744    -0.73600
O111        O  0.35907297  0.21906938  0.76557479    -0.52800
O112        O  0.35395375  0.31132962  0.73605528    -0.97500
O113        O  0.27380764  0.36853041  0.72478411    -0.54700
O114        O  0.30861533  0.33845907  0.78438008    -0.74100
C115        C  0.29691143  0.34040054  0.81340001     0.98300
O116        O  0.21942951  0.26781807  0.85963808    -0.62900
O117        O  0.13250516  0.28842867  0.70897654    -0.57700
O118        O  0.18717912  0.29414537  0.81943972    -0.94400
O119        O  0.15629314  0.30478282  0.77283242    -0.92800
O120        O  0.13735007  0.19612828  0.74196760    -0.93200
O121        O  0.16998185  0.17133171  0.79608467    -0.92000
C122        C  0.15992053  0.30388610  0.80412449     1.17100
H123        H  0.17778686  0.22950056  0.68961730     0.33000
H124        H  0.24503104  0.19232982  0.80221558     0.43900
H125        H  0.23470135  0.33502981  0.77043750     0.37400
H126        H  0.31875827  0.24951478  0.70125874     0.33900
H127        H  0.22911018  0.12372234  0.74492011     0.25700
H128        H  0.37043218  0.19589877  0.76360647     0.31600
H129        H  0.36073398  0.30401184  0.75848496     0.37500
H130        H  0.13083753  0.21545981  0.75695358     0.32000
H131        H  0.13210015  0.27303946  0.68932904     0.30900
H132        H  0.16805076  0.36169878  0.71032490     0.32500
H133        H  0.26378308  0.36833929  0.70235179     0.31500
H134        H  0.17394369  0.19015552  0.81263824     0.35500
H135        H  0.21739132  0.24260558  0.86568342     0.28200
H136        H  0.26869904  0.21321024  0.61212331     0.32500
H137        H  0.30408692  0.31990595  0.66683685     0.35300
H138        H  0.12138544  0.27400373  0.72596407     0.27900
H139        H  0.23797766  0.27747374  0.87393578     0.40800
H140        H  0.28868402  0.13851051  0.78471562     0.30900
H141        H  0.22570125  0.13248095  0.78220722     0.38500
H142        H  0.29535622  0.38218574  0.72298427     0.30300
H143        H  0.36628149  0.23238087  0.74602135     0.30400
H144        H  0.29051170  0.24702414  0.62144365     0.30700
Zr145      Zr  0.19904522  0.74821952  0.26835354     2.17500
O146        O  0.13820425  0.76022641  0.27380203    -0.51700
O147        O  0.18444863  0.71430953  0.31771437    -0.74900
O148        O  0.16289339  0.71107219  0.23137977    -0.81700
O149        O  0.22579836  0.83745301  0.30846810    -0.83400
O150        O  0.19811675  0.67389641  0.20445618    -0.79000
O151        O  0.18004987  0.80563368  0.28977236    -0.90700
O152        O  0.23150881  0.68354663  0.33337353    -0.76600
O153        O  0.23342786  0.69653446  0.26436383    -0.86100
O154        O  0.24484684  0.75439824  0.30747369    -0.85800
O155        O  0.21916182  0.74776869  0.21259767    -0.72600
O156        O  0.23003509  0.80049829  0.25286103    -0.84700
Zr157      Zr  0.33149191  0.75479093  0.23242512     2.26400
Zr158      Zr  0.25517423  0.69672034  0.21004072     2.06300
Zr159      Zr  0.27599590  0.80603922  0.29178262     2.10000
Zr160      Zr  0.27972327  0.70338897  0.30231408     1.78800
O161        O  0.28543246  0.86955166  0.28852309    -0.93500
O162        O  0.28209847  0.63936387  0.29677811    -0.41300
O163        O  0.31119887  0.75506812  0.28753943    -0.78000
O164        O  0.30220835  0.70114643  0.24819800    -0.96700
O165        O  0.28545474  0.74852498  0.19378003    -0.90000
O166        O  0.29724780  0.80649982  0.23703580    -0.92800
C167        C  0.20001349  0.69174425  0.33606964     1.01000
C168        C  0.19358335  0.83301057  0.30397087     1.13900
C169        C  0.16849582  0.68485693  0.21197494     1.04700
O170        O  0.27112828  0.63571641  0.22087319    -0.95000
O171        O  0.29992221  0.69153557  0.17065211    -0.90700
O172        O  0.34799365  0.70325872  0.19981229    -0.83800
C173        C  0.33158923  0.68656007  0.17691366     1.11300
O174        O  0.19785496  0.82981874  0.18607145    -0.96900
Zr175      Zr  0.25133864  0.79952085  0.19830539     1.88900
O176        O  0.34663750  0.79013087  0.18457899    -0.73600
O177        O  0.23124925  0.67335306  0.15874829    -0.52800
O178        O  0.23132890  0.78210603  0.14366022    -0.97500
O179        O  0.25583484  0.86375389  0.19884022    -0.54700
O180        O  0.29795862  0.81157176  0.16145952    -0.74100
C181        C  0.33035353  0.80647306  0.16161252     0.98300
O182        O  0.39324219  0.74676590  0.23536341    -0.62900
O183        O  0.27869805  0.80600901  0.35144913    -0.57700
O184        O  0.36790927  0.78420860  0.27429513    -0.94400
O185        O  0.33475877  0.81960516  0.30548042    -0.92800
O186        O  0.29665377  0.71960005  0.35806702    -0.93200
O187        O  0.33198373  0.67597906  0.32271189    -0.92000
C188        C  0.36370489  0.80699494  0.29741653     1.17100
H189        H  0.23643240  0.75700279  0.32940000     0.33000
H190        H  0.31695139  0.68086555  0.24684545     0.43900
H191        H  0.31054139  0.82765213  0.23303138     0.37400
H192        H  0.20048240  0.74589771  0.19689543     0.33900
H193        H  0.27746517  0.63022798  0.31895952     0.25700
H194        H  0.24038876  0.68859468  0.14127764     0.31600
H195        H  0.23122527  0.75597060  0.14386088     0.37500
H196        H  0.28677036  0.70091255  0.37198460     0.32000
H197        H  0.29993363  0.79318166  0.35712132     0.30900
H198        H  0.28417036  0.87808410  0.31141947     0.32500
H199        H  0.28005015  0.86914760  0.19419155     0.31500
H200        H  0.35026041  0.68625712  0.30918722     0.35500
H201        H  0.39659690  0.72195446  0.24220877     0.28200
H202        H  0.12761445  0.73748017  0.28011159     0.32500
H203        H  0.19909724  0.83707974  0.16285585     0.35300
H204        H  0.28366959  0.83084159  0.35762117     0.27900
H205        H  0.40088759  0.74760293  0.21239760     0.40800
H206        H  0.29260853  0.63201021  0.20894247     0.30900
H207        H  0.26137763  0.63292746  0.28380052     0.38500
H208        H  0.25317903  0.87041859  0.22211705     0.30300
H209        H  0.24246263  0.65025484  0.15564046     0.30400
H210        H  0.12938944  0.76491680  0.25136860     0.30700
Zr211      Zr  0.74793349  0.22841477  0.31241639     2.17500
O212        O  0.73118686  0.23702545  0.36914957    -0.51700
O213        O  0.78129798  0.17904736  0.33296221    -0.74900
O214        O  0.69432823  0.19770325  0.32594981    -0.81700
O215        O  0.80330733  0.31125757  0.32141162    -0.83400
O216        O  0.67023481  0.17790591  0.27811501    -0.79000
O217        O  0.77829102  0.26776281  0.35102192    -0.90700
O218        O  0.81134797  0.15660436  0.29061944    -0.76600
O219        O  0.74726230  0.18532584  0.26948578    -0.86100
O220        O  0.80163730  0.23370984  0.28567776    -0.85800
O221        O  0.70074347  0.24433673  0.27679457    -0.72600
O222        O  0.75090812  0.28780937  0.29233758    -0.84700
Zr223      Zr  0.75623311  0.26532295  0.18609700     2.26400
Zr224      Zr  0.70132936  0.20159542  0.23310884     2.06300
Zr225      Zr  0.80397174  0.29252006  0.26470226     2.10000
Zr226      Zr  0.80028775  0.19150305  0.24235099     1.78800
O227        O  0.81488776  0.35572348  0.26968947    -0.93500
O228        O  0.78630970  0.13154209  0.22452599    -0.41300
O229        O  0.80420661  0.25029087  0.22105034    -0.78000
O230        O  0.75429956  0.20559134  0.20554400    -0.96700
O231        O  0.70279401  0.26061988  0.21269648    -0.90000
O232        O  0.75759749  0.30813281  0.22909982    -0.92800
C233        C  0.80219263  0.15705150  0.32054097     1.01000
C234        C  0.79473632  0.29712810  0.34856572     1.13900
C235        C  0.67024186  0.18239150  0.30918730     1.04700
O236        O  0.70392435  0.13817109  0.22331429    -0.95000
O237        O  0.68725903  0.19548722  0.17517009    -0.90700
O238        O  0.72223526  0.23143002  0.14618613    -0.83800
C239        C  0.69866545  0.20779507  0.14824246     1.11300
O240        O  0.67763671  0.32599785  0.30480425    -0.96900
Zr241      Zr  0.70482413  0.30264387  0.25624922     1.88900
O242        O  0.72468965  0.31665888  0.16659708    -0.73600
O243        O  0.63952407  0.20198015  0.22451577    -0.52800
O244        O  0.64274032  0.29793283  0.25604209    -0.97500
O245        O  0.71946816  0.36386455  0.26918848    -0.54700
O246        O  0.68841653  0.33241447  0.20690414    -0.74100
C247        C  0.70056471  0.33548280  0.17823215     0.98300
O248        O  0.77890837  0.24984969  0.13267891    -0.62900
O249        O  0.86264498  0.28112107  0.28248516    -0.57700
O250        O  0.80414792  0.30214265  0.17113159    -0.94400
O251        O  0.83358410  0.31639260  0.21780242    -0.92800
O252        O  0.86185103  0.18940583  0.25171168    -0.93200
O253        O  0.83233423  0.17783463  0.19337615    -0.92000
C254        C  0.82912104  0.31712199  0.18654637     1.17100
H255        H  0.82042229  0.22948081  0.30080481     0.33000
H256        H  0.75471943  0.18916755  0.18740745     0.43900
H257        H  0.76092816  0.33170295  0.22074049     0.37400
H258        H  0.67920842  0.24426789  0.28789961     0.33900
H259        H  0.80812334  0.11856678  0.22651142     0.25700
H260        H  0.63521076  0.21938503  0.20691358     0.31600
H261        H  0.63720115  0.28017771  0.23887619     0.37500
H262        H  0.86905486  0.21444229  0.25356004     0.32000
H263        H  0.87691301  0.28950045  0.26427705     0.30900
H264        H  0.83661230  0.35771717  0.28239191     0.32500
H265        H  0.72193597  0.37573641  0.24779625     0.31500
H266        H  0.83955923  0.20109031  0.18479493     0.35500
H267        H  0.77819150  0.27179866  0.11958194     0.28200
H268        H  0.72868669  0.21307999  0.37850197     0.32500
H269        H  0.68414747  0.30936332  0.32245918     0.35300
H270        H  0.86724263  0.29827240  0.30041243     0.27900
H271        H  0.80350436  0.24509282  0.13651734     0.40800
H272        H  0.70812140  0.13552431  0.19960143     0.30900
H273        H  0.77208158  0.12172074  0.24215848     0.38500
H274        H  0.74300758  0.36291190  0.27842422     0.30300
H275        H  0.63393237  0.17878887  0.21441470     0.30400
H276        H  0.70775485  0.24671545  0.36810210     0.30700
Zr277      Zr  0.75349634  0.26584424  0.82207523     2.17500
O278        O  0.77208191  0.25174094  0.87783595    -0.51700
O279        O  0.72535991  0.31949025  0.84023941    -0.74900
O280        O  0.80686317  0.29702433  0.83911998    -0.81700
O281        O  0.68215717  0.19565661  0.82682619    -0.83400
O282        O  0.83658835  0.31080707  0.79355415    -0.79000
O283        O  0.71633395  0.23149873  0.85850565    -0.90700
O284        O  0.69583254  0.34114561  0.79656009    -0.76600
O285        O  0.75853674  0.30750047  0.77860753    -0.86100
O286        O  0.70034198  0.26414741  0.79206858    -0.85800
O287        O  0.80053505  0.24582432  0.78981918    -0.72600
O288        O  0.74564804  0.20678622  0.80128528    -0.84700
Zr289      Zr  0.74606294  0.22743583  0.69406988     2.26400
Zr290      Zr  0.80495777  0.28747972  0.74586124     2.06300
Zr291      Zr  0.69357243  0.20589814  0.76971747     2.10000
Zr292      Zr  0.70568024  0.30511270  0.74873063     1.78800
O293        O  0.68442906  0.14342411  0.78096578    -0.93500
O294        O  0.71968715  0.36499896  0.73166090    -0.41300
O295        O  0.69842386  0.24713069  0.72588372    -0.78000
O296        O  0.75179613  0.28697619  0.71527292    -0.96700
O297        O  0.79850789  0.22856846  0.72494503    -0.90000
O298        O  0.73995426  0.18581614  0.73736793    -0.92800
C299        C  0.70564578  0.34235632  0.82665770     1.01000
C300        C  0.69308187  0.20744496  0.85456525     1.13900
C301        C  0.83302314  0.31066969  0.82485856     1.04700
O302        O  0.81583809  0.35020874  0.73758677    -0.95000
O303        O  0.81723370  0.29841107  0.68813833    -0.90700
O304        O  0.77887128  0.26616994  0.65766562    -0.83800
C305        C  0.80337267  0.28899885  0.66059575     1.11300
O306        O  0.81222924  0.16379030  0.82054913    -0.96900
Zr307      Zr  0.79174957  0.18766842  0.76857692     1.88900
O308        O  0.78357903  0.18041671  0.67447275    -0.73600
O309        O  0.86430876  0.27013899  0.73969563    -0.52800
O310        O  0.85380056  0.18490863  0.77339525    -0.97500
O311        O  0.77427072  0.12674255  0.77843013    -0.54700
O312        O  0.80984681  0.15853971  0.71982446    -0.74100
C313        C  0.80463005  0.15933520  0.68884434     0.98300
O314        O  0.71987543  0.23136123  0.63954431    -0.62900
O315        O  0.63318499  0.22006075  0.77449599    -0.57700
O316        O  0.69627767  0.19080151  0.67701285    -0.94400
O317        O  0.66391256  0.18140300  0.72191155    -0.92800
O318        O  0.64373101  0.30182239  0.75297957    -0.93200
O319        O  0.67749743  0.32687178  0.69921252    -0.92000
C320        C  0.66954601  0.17830458  0.69113485     1.17100
H321        H  0.68147191  0.27000676  0.80596393     0.33000
H322        H  0.75222675  0.30417044  0.69791881     0.43900
H323        H  0.73546848  0.16251177  0.72853908     0.37400
H324        H  0.82142979  0.24515703  0.80271438     0.33900
H325        H  0.70577735  0.38066350  0.74548695     0.25700
H326        H  0.86455629  0.25591609  0.71931078     0.31600
H327        H  0.86216616  0.19324190  0.75201555     0.37500
H328        H  0.63631128  0.32671796  0.75436522     0.32000
H329        H  0.62120423  0.19700295  0.77262700     0.30900
H330        H  0.69287810  0.13077429  0.76150246     0.32500
H331        H  0.76484385  0.11782126  0.75730276     0.31500
H332        H  0.68451044  0.31030470  0.68180621     0.35500
H333        H  0.71398825  0.25656611  0.63673118     0.28200
H334        H  0.77578537  0.27466890  0.88912839     0.32500
H335        H  0.81584959  0.18473488  0.83480662     0.35300
H336        H  0.63026676  0.22720931  0.79761261     0.27900
H337        H  0.73842138  0.22696319  0.62389647     0.40800
H338        H  0.80646109  0.36200390  0.75711521     0.30900
H339        H  0.74346860  0.36891907  0.73955606     0.38500
H340        H  0.75423795  0.12858791  0.79278464     0.30300
H341        H  0.87641732  0.29229316  0.73410596     0.30400
H342        H  0.79515226  0.24148246  0.87574405     0.30700
C343        C  0.61274966  0.90363771  0.00958585    -0.02800
C344        C  0.58859306  0.11709770  0.00154721    -0.02800
C345        C  0.40431940  0.88844846  0.99309296    -0.02800
C346        C  0.37992294  0.10331351  0.99282253    -0.02800
Zr347      Zr  0.24359624  0.73346146  0.81213193     2.17500
O348        O  0.23168099  0.74365022  0.86985659    -0.51700
O349        O  0.27460230  0.68092949  0.83060497    -0.74900
O350        O  0.18994904  0.70570664  0.82979386    -0.81700
O351        O  0.30869725  0.80894246  0.81493227    -0.83400
O352        O  0.15597697  0.69331352  0.78548392    -0.79000
O353        O  0.27917337  0.77169826  0.84775129    -0.90700
O354        O  0.29663571  0.65427482  0.78598721    -0.76600
O355        O  0.23322209  0.69119249  0.76963655    -0.86100
O356        O  0.29494965  0.72964834  0.78166511    -0.85800
O357        O  0.19597876  0.75593950  0.78034001    -0.72600
O358        O  0.25280843  0.79152737  0.79013276    -0.84700
Zr359      Zr  0.24792706  0.76832455  0.68353640     2.26400
Zr360      Zr  0.18678170  0.71360066  0.73721430     2.06300
Zr361      Zr  0.30404423  0.78704202  0.75946655     2.10000
Zr362      Zr  0.28382252  0.68868741  0.73830348     1.78800
O363        O  0.33480794  0.84274014  0.76687922    -0.93500
O364        O  0.26000929  0.62970625  0.72913982    -0.41300
O365        O  0.29512163  0.74580097  0.71562911    -0.78000
O366        O  0.23762939  0.70991222  0.70513371    -0.96700
O367        O  0.19655270  0.77090240  0.71424843    -0.90000
O368        O  0.25808409  0.80997915  0.72681233    -0.92800
C369        C  0.29165746  0.65625476  0.81677840     1.01000
C370        C  0.29917750  0.79825144  0.84305709     1.13900
C371        C  0.16206184  0.69356594  0.81659243     1.04700
O372        O  0.17917321  0.65019283  0.72988638    -0.95000
O373        O  0.16813212  0.70704886  0.68043463    -0.90700
O374        O  0.20622116  0.73587118  0.64815843    -0.83800
C375        C  0.17955191  0.71619729  0.65239492     1.11300
O376        O  0.17330998  0.83239534  0.80309805    -0.96900
Zr377      Zr  0.20653205  0.81248329  0.75676028     1.88900
O378        O  0.21821520  0.82134545  0.66434512    -0.73600
O379        O  0.12677301  0.72877156  0.72977599    -0.52800
O380        O  0.14582798  0.81327191  0.74271755    -0.97500
O381        O  0.22246847  0.87045449  0.77842581    -0.54700
O382        O  0.20164557  0.85064996  0.70999748    -0.74100
C383        C  0.20531974  0.84810913  0.67902261     0.98300
O384        O  0.27073059  0.75477286  0.62977216    -0.62900
O385        O  0.35907216  0.75869789  0.76922246    -0.57700
O386        O  0.30060353  0.80014939  0.66687249    -0.94400
O387        O  0.33180226  0.81304166  0.71302419    -0.92800
O388        O  0.34575958  0.68284936  0.74015855    -0.93200
O389        O  0.30555212  0.66456961  0.68740375    -0.92000
C390        C  0.32671583  0.81414517  0.68202292     1.17100
H391        H  0.31385825  0.72252036  0.79555966     0.33000
H392        H  0.23433408  0.69309887  0.68754316     0.43900
H393        H  0.26434993  0.83292208  0.71849070     0.37400
H394        H  0.17587509  0.75818224  0.79350855     0.33900
H395        H  0.24725850  0.63105642  0.70803161     0.25700
H396        H  0.11423772  0.70612626  0.73196249     0.31600
H397        H  0.14024150  0.83858150  0.74016537     0.37500
H398        H  0.34984396  0.65753637  0.74465740     0.32000
H399        H  0.37572274  0.77332384  0.75722737     0.30900
H400        H  0.35842123  0.83603291  0.77324078     0.32500
H401        H  0.23364761  0.88274713  0.76009386     0.31500
H402        H  0.29871223  0.68189755  0.67045776     0.35500
H403        H  0.26840009  0.72884892  0.62723651     0.28200
H404        H  0.22983737  0.71992834  0.87982024     0.32500
H405        H  0.18095617  0.81738987  0.82159543     0.35300
H406        H  0.36450010  0.76333668  0.79263314     0.27900
H407        H  0.25422367  0.76481974  0.61374134     0.40800
H408        H  0.15810069  0.64760433  0.71629243     0.30900
H409        H  0.27984786  0.61446852  0.72462678     0.38500
H410        H  0.24129083  0.86579318  0.79431700     0.30300
H411        H  0.12098640  0.74241790  0.74961312     0.30400
H412        H  0.20833515  0.75352540  0.87047258     0.30700
C413        C  0.88637031  0.00585381  0.57852214    -0.02800
C414        C  0.09487984  0.99479868  0.58263254    -0.02800
C415        C  0.89229554  0.98129718  0.37996198    -0.02800
C416        C  0.09422566  0.99985042  0.38198625    -0.02800
Zr417      Zr  0.67824002  0.74062909  0.23659833     2.17500
O418        O  0.61634863  0.73590747  0.22908483    -0.51700
O419        O  0.66790383  0.77532997  0.18667586    -0.74900
O420        O  0.64637574  0.77887397  0.27435610    -0.81700
O421        O  0.69567152  0.65056946  0.19761687    -0.83400
O422        O  0.68471780  0.81025020  0.30551015    -0.79000
O423        O  0.65267029  0.68468364  0.21681454    -0.90700
O424        O  0.71728064  0.80099110  0.17056612    -0.76600
O425        O  0.71778954  0.78861516  0.24276549    -0.86100
O426        O  0.72282761  0.73037476  0.19855993    -0.85800
O427        O  0.69893443  0.73737855  0.29263370    -0.72600
O428        O  0.70412651  0.68556310  0.25144668    -0.84700
Zr429      Zr  0.80996530  0.72014868  0.27631156     2.26400
Zr430      Zr  0.73982341  0.78456602  0.29775272     2.06300
Zr431      Zr  0.74933942  0.67622804  0.21424334     2.10000
Zr432      Zr  0.76256214  0.77777948  0.20531324     1.78800
O433        O  0.75030945  0.61193159  0.21699384    -0.93500
O434        O  0.77044213  0.84154551  0.20979567    -0.41300
O435        O  0.78945799  0.72346623  0.22052665    -0.78000
O436        O  0.78536953  0.77618663  0.26024398    -0.96700
O437        O  0.76483537  0.72972666  0.31357806    -0.90000
O438        O  0.77069359  0.67219143  0.26948975    -0.92800
C439        C  0.68512123  0.79510133  0.16725254     1.01000
C440        C  0.66417159  0.65672351  0.20284855     1.13900
C441        C  0.65425555  0.80168827  0.29677754     1.04700
O442        O  0.75436972  0.84608248  0.28743452    -0.95000
O443        O  0.78892245  0.79409808  0.33331025    -0.90700
O444        O  0.83378563  0.77068286  0.30665246    -0.83800
C445        C  0.82079380  0.79185493  0.32758082     1.11300
O446        O  0.66885342  0.66181616  0.32203908    -0.96900
Zr447      Zr  0.72522559  0.68252620  0.30628385     1.88900
O448        O  0.81959175  0.68556771  0.32684366    -0.73600
O449        O  0.72187109  0.79848472  0.35323018    -0.52800
O450        O  0.71064318  0.69882917  0.36202846    -0.97500
O451        O  0.71526903  0.61939271  0.29903834    -0.54700
O452        O  0.76974777  0.65905873  0.34097059    -0.74100
C453        C  0.80165670  0.66535019  0.34533904     0.98300
O454        O  0.87220900  0.72197941  0.27421635    -0.62900
O455        O  0.75327603  0.67546406  0.15462595    -0.57700
O456        O  0.84304356  0.68450359  0.23735650    -0.94400
O457        O  0.80596027  0.65723362  0.20202174    -0.92800
O458        O  0.77625044  0.75896808  0.14998882    -0.93200
O459        O  0.81822522  0.79806650  0.18708186    -0.92000
C460        C  0.83621102  0.66427174  0.21251494     1.17100
H461        H  0.71413262  0.72857806  0.17632360     0.33000
H462        H  0.80175209  0.79528569  0.26211524     0.43900
H463        H  0.78187650  0.64998375  0.27370600     0.37400
H464        H  0.68086906  0.74002099  0.30818557     0.33900
H465        H  0.74853251  0.85040114  0.21822350     0.25700
H466        H  0.73566973  0.78326308  0.36792903     0.31600
H467        H  0.72539800  0.71946352  0.36733870     0.37500
H468        H  0.76930271  0.77882704  0.13569347     0.32000
H469        H  0.76725383  0.65454931  0.14946330     0.30900
H470        H  0.76228781  0.60611370  0.23779881     0.32500
H471        H  0.73825656  0.60866896  0.29985167     0.31500
H472        H  0.83482450  0.78576838  0.20154940     0.35500
H473        H  0.87780563  0.74482480  0.26378549     0.28200
H474        H  0.60844464  0.76006187  0.22388257     0.32500
H475        H  0.65377865  0.66768652  0.30312414     0.35300
H476        H  0.73008529  0.66916267  0.14636452     0.27900
H477        H  0.88037447  0.72445458  0.29720287     0.40800
H478        H  0.75252164  0.85790855  0.30898060     0.30900
H479        H  0.78702646  0.84520303  0.22810330     0.38500
H480        H  0.70761121  0.61677662  0.27591323     0.30300
H481        H  0.73045718  0.82272616  0.35764638     0.30400
H482        H  0.60714370  0.73070569  0.25099594     0.30700
C483        C  0.00082745  0.60711738  0.91319467    -0.02800
C484        C  0.00505013  0.61072774  0.11244265    -0.02800
C485        C  0.00921156  0.39357323  0.90582047    -0.02800
C486        C  0.99834207  0.39530683  0.10400212    -0.02800
Zr487      Zr  0.31610081  0.24969925  0.22795291     2.17500
O488        O  0.37618048  0.26551533  0.22139465    -0.51700
O489        O  0.32791138  0.21437387  0.17919904    -0.74900
O490        O  0.35554403  0.21679506  0.26391991    -0.81700
O491        O  0.28653545  0.33469775  0.18742321    -0.83400
O492        O  0.32536738  0.17822221  0.29485283    -0.79000
O493        O  0.33403338  0.30196463  0.19748461    -0.90700
O494        O  0.27852913  0.19060100  0.15909162    -0.76600
O495        O  0.28321761  0.19689854  0.23394824    -0.86100
O496        O  0.26770386  0.25543928  0.19215185    -0.85800
O497        O  0.29989002  0.24963310  0.28478989    -0.72600
O498        O  0.28658721  0.30207349  0.24528227    -0.84700
Zr499      Zr  0.18692817  0.25267492  0.27176290     2.26400
Zr500      Zr  0.26616894  0.19695872  0.29017854     2.06300
Zr501      Zr  0.23742885  0.30608249  0.21006263     2.10000
Zr502      Zr  0.23463749  0.20324204  0.19834652     1.78800
O503        O  0.23002562  0.36916167  0.21891801    -0.93500
O504        O  0.23889917  0.13909549  0.19928660    -0.41300
O505        O  0.20326220  0.25401482  0.21522345    -0.78000
O506        O  0.21739378  0.20066097  0.25414676    -0.96700
O507        O  0.23541944  0.24792315  0.30777355    -0.90000
O508        O  0.21956137  0.30561420  0.26566553    -0.92800
C509        C  0.31067641  0.19689025  0.15740941     1.01000
C510        C  0.31864598  0.32901082  0.18551597     1.13900
C511        C  0.35349441  0.19225336  0.28555740     1.04700
O512        O  0.26438900  0.13309014  0.28315868    -0.95000
O513        O  0.21827145  0.17289816  0.31982393    -0.90700
O514        O  0.16982555  0.19895361  0.30021534    -0.83800
C515        C  0.18567729  0.17563494  0.31732652     1.11300
O516        O  0.32468098  0.32359638  0.31582529    -0.96900
Zr517      Zr  0.26830718  0.30044068  0.30085945     1.88900
O518        O  0.17385165  0.29081650  0.31922346    -0.73600
O519        O  0.28299830  0.19515759  0.34790746    -0.52800
O520        O  0.28647673  0.28992616  0.35730227    -0.97500
O521        O  0.27033917  0.36442235  0.29469998    -0.54700
O522        O  0.22226276  0.32014519  0.33491701    -0.74100
C523        C  0.19036406  0.31309770  0.33760699     0.98300
O524        O  0.12675384  0.23964819  0.28129024    -0.62900
O525        O  0.22847691  0.31099417  0.15104555    -0.57700
O526        O  0.14781430  0.27980541  0.23098253    -0.94400
O527        O  0.17801721  0.31847132  0.20032761    -0.92800
O528        O  0.21220173  0.21516394  0.14348673    -0.93200
O529        O  0.17758541  0.17871765  0.18889381    -0.92000
C530        C  0.14997029  0.30397193  0.20890859     1.17100
H531        H  0.27448925  0.25875546  0.16975510     0.33000
H532        H  0.20366558  0.17948003  0.25552401     0.43900
H533        H  0.20614480  0.32626863  0.27037965     0.37400
H534        H  0.31939661  0.24928729  0.29956660     0.33900
H535        H  0.26364039  0.13433176  0.20192164     0.25700
H536        H  0.29142582  0.17087377  0.35156300     0.31600
H537        H  0.27273797  0.26935715  0.36432672     0.37500
H538        H  0.21089779  0.19178434  0.13256777     0.32000
H539        H  0.21139700  0.29242765  0.14544764     0.30900
H540        H  0.23191812  0.37976902  0.19689217     0.32500
H541        H  0.27386804  0.37360687  0.31725106     0.31500
H542        H  0.16270124  0.19264473  0.20336572     0.35500
H543        H  0.11540246  0.26283686  0.28315827     0.28200
H544        H  0.38788318  0.24336200  0.21542525     0.32500
H545        H  0.33612018  0.32721079  0.29465274     0.35300
H546        H  0.21615838  0.33350286  0.14785346     0.27900
H547        H  0.11765352  0.22917252  0.26062721     0.40800
H548        H  0.27109756  0.12358325  0.30487804     0.30900
H549        H  0.22901321  0.13197303  0.22042223     0.38500
H550        H  0.24669352  0.37135060  0.28878711     0.30300
H551        H  0.30366997  0.21030834  0.34977263     0.30400
H552        H  0.38512608  0.27176953  0.24351617     0.30700
C553        C  0.03214403  0.38282787  0.12068408    -0.05600
C554        C  0.06113365  0.40486866  0.12471677    -0.05500
C555        C  0.08967510  0.39368235  0.14285047    -0.23700
C556        C  0.09024582  0.36002156  0.15700142     0.18500
C557        C  0.06259203  0.33662255  0.15138866     0.15700
C558        C  0.03458824  0.34758794  0.13208294    -0.18700
C559        C  0.06309621  0.30297835  0.16582960    -0.20600
C560        C  0.09083179  0.29268193  0.18571643    -0.13100
C561        C  0.11877845  0.31561870  0.19095478     0.03600
C562        C  0.11818130  0.34931265  0.17643636    -0.25300
H563        H  0.06192392  0.43093448  0.11407282     0.08600
H564        H  0.11116758  0.41160857  0.14618253     0.12200
H565        H  0.01353101  0.32934592  0.12763266     0.12200
H566        H  0.04199224  0.28469987  0.16184977     0.11900
H567        H  0.09087615  0.26646108  0.19621829     0.12500
H568        H  0.13956492  0.36730593  0.18027017     0.14400
C569        C  0.00114783  0.38132066  0.06823790    -0.05600
C570        C  0.98289225  0.35230552  0.05451455    -0.05500
C571        C  0.98317986  0.34571624  0.02040164    -0.23700
C572        C  0.00090878  0.36852521  0.99931565     0.18500
C573        C  0.02093091  0.39578086  0.01354040     0.15700
C574        C  0.02308449  0.39996891  0.04744496    -0.18700
C575        C  0.03694695  0.42032508  0.99383409    -0.20600
C576        C  0.03164788  0.41947466  0.96032029    -0.13100
C577        C  0.01182231  0.39268687  0.94430214     0.03600
C578        C  0.99845462  0.36558872  0.96456385    -0.25300
H579        H  0.96811988  0.33493832  0.06981720     0.08600
H580        H  0.96815938  0.32395713  0.01042534     0.12200
H581        H  0.03897757  0.42108436  0.05747903     0.12200
H582        H  0.05215084  0.44164862  0.00447305     0.11900
H583        H  0.04311479  0.44101207  0.94708837     0.12500
H584        H  0.98570000  0.34286087  0.95375229     0.14400
C585        C  0.00403954  0.56987026  0.11722613    -0.05600
C586        C  0.01264513  0.55460675  0.14783734    -0.05500
C587        C  0.01300008  0.51788765  0.15202926    -0.23700
C588        C  0.00182287  0.49540903  0.12663512     0.18500
C589        C  0.98860900  0.51035034  0.09756235     0.15700
C590        C  0.98988404  0.54698872  0.09295789    -0.18700
C591        C  0.97398916  0.48841466  0.07349373    -0.20600
C592        C  0.97535420  0.45188853  0.07681982    -0.13100
C593        C  0.99329651  0.43608051  0.10331075     0.03600
C594        C  0.00349788  0.45837887  0.12968198    -0.25300
H595        H  0.02028853  0.57120269  0.16836522     0.08600
H596        H  0.02190080  0.50712573  0.17517303     0.12200
H597        H  0.97904330  0.55735289  0.07045198     0.12200
H598        H  0.96193345  0.49946985  0.05177800     0.11900
H599        H  0.96342175  0.43597721  0.05768992     0.12500
H600        H  0.01392767  0.44708554  0.15199839     0.14400
C601        C  0.99881483  0.56604790  0.91230506    -0.05600
C602        C  0.97357941  0.54949820  0.93158803    -0.05500
C603        C  0.96832738  0.51318777  0.93078404    -0.23700
C604        C  0.98837818  0.49195691  0.91097976     0.18500
C605        C  0.01407114  0.50746444  0.89180794     0.15700
C606        C  0.01956745  0.54424921  0.89289359    -0.18700
C607        C  0.03397756  0.48574102  0.87203170    -0.20600
C608        C  0.03060934  0.44898150  0.87362140    -0.13100
C609        C  0.00771951  0.43310419  0.89565620     0.03600
C610        C  0.98429162  0.45522137  0.91151317    -0.25300
H611        H  0.95708450  0.56514778  0.94682823     0.08600
H612        H  0.94868775  0.50170858  0.94589480     0.12200
H613        H  0.04004479  0.55533232  0.87874747     0.12200
H614        H  0.05291472  0.49710787  0.85608162     0.11900
H615        H  0.04689710  0.43323242  0.85836174     0.12500
H616        H  0.96526550  0.44359815  0.92726555     0.14400
C617        C  0.00852578  0.61464536  0.95026580    -0.05600
C618        C  0.03854937  0.59968486  0.96410337    -0.05500
C619        C  0.04428803  0.59832724  0.99783224    -0.23700
C620        C  0.02021178  0.61186090  0.01924882     0.18500
C621        C  0.99075841  0.62848281  0.00650453     0.15700
C622        C  0.98485877  0.62961370  0.97221032    -0.18700
C623        C  0.96722138  0.64267352  0.02844660    -0.20600
C624        C  0.97207427  0.63904620  0.06245068    -0.13100
C625        C  0.99998448  0.61983452  0.07546615     0.03600
C626        C  0.02462789  0.60771996  0.05322153    -0.25300
H627        H  0.05702354  0.58717830  0.94847411     0.08600
H628        H  0.06713523  0.58554053  0.00717215     0.12200
H629        H  0.96085666  0.64003632  0.96331353     0.12200
H630        H  0.94480368  0.65635561  0.01930270     0.11900
H631        H  0.95352808  0.65104527  0.07814830     0.12500
H632        H  0.04676884  0.59362904  0.06253346     0.14400
C633        C  0.86443608  0.64903936  0.19311321    -0.05600
C634        C  0.85670201  0.62690032  0.16602587    -0.05500
C635        C  0.88229358  0.61521971  0.14528796    -0.23700
C636        C  0.91632241  0.62522551  0.15113260     0.18500
C637        C  0.92457598  0.64648776  0.17868881     0.15700
C638        C  0.89871688  0.65831543  0.19947582    -0.18700
C639        C  0.95863458  0.65541872  0.18517468    -0.20600
C640        C  0.98418918  0.64411823  0.16435739    -0.13100
C641        C  0.97655142  0.62473522  0.13522211     0.03600
C642        C  0.94215915  0.61430879  0.12989057    -0.25300
H643        H  0.83060747  0.61905512  0.16030680     0.08600
H644        H  0.87537037  0.59870069  0.12444992     0.12200
H645        H  0.90523955  0.67526545  0.22013304     0.12200
H646        H  0.96568487  0.67071218  0.20677041     0.11900
H647        H  0.01003349  0.65009455  0.17227318     0.12500
H648        H  0.93553573  0.59765911  0.10905453     0.14400
C649        C  0.10568068  0.03446239  0.36509475    -0.05600
C650        C  0.10275800  0.03780106  0.33074185    -0.05500
C651        C  0.11481475  0.06793289  0.31475647    -0.23700
C652        C  0.13155137  0.09488931  0.33252364     0.18500
C653        C  0.13573105  0.09158912  0.36675908     0.15700
C654        C  0.12298092  0.06176156  0.38262892    -0.18700
C655        C  0.15401942  0.11745189  0.38459220    -0.20600
C656        C  0.16924387  0.14566738  0.36844689    -0.13100
C657        C  0.16546497  0.14903839  0.33446090     0.03600
C658        C  0.14590939  0.12412547  0.31657328    -0.25300
H659        H  0.09106377  0.01684134  0.31622793     0.08600
H660        H  0.11192338  0.06965727  0.28837700     0.12200
H661        H  0.12835124  0.05949892  0.40858574     0.12200
H662        H  0.15756714  0.11519572  0.41087859     0.11900
H663        H  0.18459655  0.16454027  0.38237036     0.12500
H664        H  0.14370180  0.12639267  0.29015592     0.14400
C665        C  0.87959675  0.94514508  0.36668869    -0.05600
C666        C  0.87688984  0.94094637  0.33230898    -0.05500
C667        C  0.86856202  0.90860082  0.31810819    -0.23700
C668        C  0.86246494  0.87931701  0.33779665     0.18500
C669        C  0.86508009  0.88246387  0.37225875     0.15700
C670        C  0.87417472  0.91515913  0.38652323    -0.18700
C671        C  0.85750168  0.85303536  0.39176840    -0.20600
C672        C  0.84534943  0.82171861  0.37721803    -0.13100
C673        C  0.84240195  0.81896395  0.34301873     0.03600
C674        C  0.85213751  0.84735596  0.32345393    -0.25300
H675        H  0.88160446  0.96313574  0.31629818     0.08600
H676        H  0.86650043  0.90662886  0.29166098     0.12200
H677        H  0.87725277  0.91673993  0.41283104     0.12200
H678        H  0.85918236  0.85485495  0.41823118     0.11900
H679        H  0.83688408  0.80022992  0.39258573     0.12500
H680        H  0.84864394  0.84556144  0.29706699     0.14400
C681        C  0.05646428  0.98942936  0.37493772    -0.05600
C682        C  0.04470042  0.95750191  0.38877291    -0.05500
C683        C  0.01098785  0.94662959  0.38525827    -0.23700
C684        C  0.98729437  0.96839745  0.36963704     0.18500
C685        C  0.99782356  0.00074515  0.35595822     0.15700
C686        C  0.03243700  0.01097149  0.35824548    -0.18700
C687        C  0.97306125  0.02312434  0.34210568    -0.20600
C688        C  0.93820219  0.01573434  0.34597672    -0.13100
C689        C  0.92781964  0.98589735  0.36403608     0.03600
C690        C  0.95265089  0.96010886  0.37126371    -0.25300
H691        H  0.06208508  0.94076446  0.40250293     0.08600
H692        H  0.00308648  0.92208578  0.39650962     0.12200
H693        H  0.03969867  0.03659607  0.34902815     0.12200
H694        H  0.98056308  0.04743336  0.33022353     0.11900
H695        H  0.91998163  0.03446436  0.33636540     0.12500
H696        H  0.94513657  0.93612148  0.38373256     0.14400
C697        C  0.10334830  0.99541984  0.54501814    -0.05600
C698        C  0.12945774  0.97407436  0.53149957    -0.05500
C699        C  0.13303805  0.97000712  0.49772338    -0.23700
C700        C  0.11254841  0.98916996  0.47597195     0.18500
C701        C  0.08991196  0.01430874  0.48866717     0.15700
C702        C  0.08598842  0.01773126  0.52269136    -0.18700
C703        C  0.07076622  0.03516582  0.46712247    -0.20600
C704        C  0.07329996  0.03042576  0.43343444    -0.13100
C705        C  0.09508915  0.00467419  0.41989272     0.03600
C706        C  0.11461132  0.98389392  0.44186770    -0.25300
H707        H  0.14749254  0.95988208  0.54671963     0.08600
H708        H  0.15203016  0.95190708  0.48866039     0.12200
H709        H  0.06906144  0.03780059  0.53099632     0.12200
H710        H  0.05334725  0.05483602  0.47629847     0.11900
H711        H  0.05777459  0.04688865  0.41754752     0.12500
H712        H  0.13078244  0.96308972  0.43301944     0.14400
C713        C  0.88068643  0.00039112  0.54100861    -0.05600
C714        C  0.84796642  0.99214191  0.52748436    -0.05500
C715        C  0.84344504  0.98465734  0.49386496    -0.23700
C716        C  0.87147578  0.98566138  0.47283710     0.18500
C717        C  0.90398536  0.99350499  0.48628162     0.15700
C718        C  0.90848106  0.99944509  0.51959750    -0.18700
C719        C  0.93206461  0.99671418  0.46626125    -0.20600
C720        C  0.92815624  0.99330285  0.43285268    -0.13100
C721        C  0.89654254  0.98315748  0.41796379     0.03600
C722        C  0.86794744  0.97973109  0.43872723    -0.25300
H723        H  0.82593968  0.99115482  0.54313801     0.08600
H724        H  0.81808020  0.97850649  0.48433408     0.12200
H725        H  0.93448665  0.00289052  0.52813386     0.12200
H726        H  0.95701435  0.00393962  0.47629593     0.11900
H727        H  0.95041485  0.00057102  0.41928073     0.12500
H728        H  0.84298618  0.97370201  0.42813897     0.14400
C729        C  0.92542456  0.01156025  0.58630907    -0.05600
C730        C  0.94121367  0.04359409  0.57654856    -0.05500
C731        C  0.97677028  0.04727745  0.57609146    -0.23700
C732        C  0.99774688  0.01891373  0.58484174     0.18500
C733        C  0.98277450  0.98801538  0.59725351     0.15700
C734        C  0.94700500  0.98511225  0.59943592    -0.18700
C735        C  0.00386388  0.96020032  0.60692657    -0.20600
C736        C  0.03919947  0.96211152  0.60265000    -0.13100
C737        C  0.05502272  0.99168067  0.58766996     0.03600
C738        C  0.03339250  0.02094740  0.58117330    -0.25300
H739        H  0.92592769  0.06503678  0.56693021     0.08600
H740        H  0.98777144  0.07164071  0.56709893     0.12200
H741        H  0.93667445  0.96142309  0.61003981     0.12200
H742        H  0.99299630  0.93663228  0.61768062     0.11900
H743        H  0.05343323  0.94019589  0.61226822     0.12500
H744        H  0.04423994  0.04624334  0.57481269     0.14400
C745        C  0.11378690  0.96256000  0.59843279    -0.05600
C746        C  0.10791352  0.92805825  0.58571826    -0.05500
C747        C  0.12675432  0.89908800  0.59672405    -0.23700
C748        C  0.15188647  0.90337303  0.62120740     0.18500
C749        C  0.15802189  0.93732430  0.63459799     0.15700
C750        C  0.13932169  0.96637979  0.62321938    -0.18700
C751        C  0.18253857  0.94176474  0.65968153    -0.20600
C752        C  0.19959373  0.91262633  0.67247242    -0.13100
C753        C  0.19307874  0.87858822  0.66000124     0.03600
C754        C  0.17003255  0.87415908  0.63352800    -0.25300
H755        H  0.08908379  0.92384571  0.56629819     0.08600
H756        H  0.12153840  0.87330219  0.58611824     0.12200
H757        H  0.14544301  0.99184541  0.63385220     0.12200
H758        H  0.18762824  0.96759692  0.67025806     0.11900
H759        H  0.21707076  0.91646621  0.69308280     0.12500
H760        H  0.16444914  0.84785543  0.62422768     0.14400
C761        C  0.02915368  0.62287997  0.89067941    -0.05600
C762        C  0.02674223  0.61759835  0.85638887    -0.05500
C763        C  0.05168549  0.63052682  0.83524861    -0.23700
C764        C  0.08019288  0.64921878  0.84752085     0.18500
C765        C  0.08298879  0.65572275  0.88148804     0.15700
C766        C  0.05717226  0.64365711  0.90256271    -0.18700
C767        C  0.11175185  0.67407742  0.89388742    -0.20600
C768        C  0.13744460  0.68573681  0.87291410    -0.13100
C769        C  0.13490665  0.67987326  0.83884949     0.03600
C770        C  0.10586841  0.66156125  0.82639952    -0.25300
H771        H  0.00557454  0.60269420  0.84581489     0.08600
H772        H  0.04883725  0.62545213  0.80921380     0.12200
H773        H  0.05943368  0.65072488  0.92815157     0.12200
H774        H  0.11452542  0.67925544  0.91991707     0.11900
H775        H  0.15920355  0.69979003  0.88345390     0.12500
H776        H  0.10329374  0.65668010  0.80030499     0.14400
C777        C  0.32874778  0.18364827  0.12806197    -0.05600
C778        C  0.36377108  0.19060949  0.12381268    -0.05500
C779        C  0.38063030  0.17807297  0.09617011    -0.23700
C780        C  0.36290929  0.15806947  0.07227823     0.18500
C781        C  0.32762667  0.15158051  0.07596134     0.15700
C782        C  0.31078461  0.16450065  0.10355782    -0.18700
C783        C  0.30974252  0.13186748  0.05219547    -0.20600
C784        C  0.32689316  0.11730302  0.02582145    -0.13100
C785        C  0.36255943  0.12190988  0.02220786     0.03600
C786        C  0.37999267  0.14397161  0.04515414    -0.25300
H787        H  0.37825863  0.20569338  0.14192637     0.08600
H788        H  0.40766876  0.18358634  0.09374363     0.12200
H789        H  0.28369583  0.15922178  0.10605113     0.12200
H790        H  0.28255620  0.12700472  0.05435910     0.11900
H791        H  0.31236395  0.10133622  0.00838992     0.12500
H792        H  0.40677455  0.15012819  0.04254877     0.14400
C793        C  0.31201653  0.81881548  0.87136665    -0.05600
C794        C  0.30747461  0.85554517  0.87178582    -0.05500
C795        C  0.32320658  0.87636454  0.89606731    -0.23700
C796        C  0.34470326  0.86087976  0.91971619     0.18500
C797        C  0.34906614  0.82385979  0.91969646     0.15700
C798        C  0.33221197  0.80291987  0.89581335    -0.18700
C799        C  0.37077630  0.80852603  0.94311630    -0.20600
C800        C  0.38849653  0.82963339  0.96589693    -0.13100
C801        C  0.38541890  0.86680754  0.96585073     0.03600
C802        C  0.36228037  0.88193992  0.94295941    -0.25300
H803        H  0.29213673  0.86817477  0.85289441     0.08600
H804        H  0.31944570  0.90468205  0.89570059     0.12200
H805        H  0.33617055  0.77461880  0.89519999     0.12200
H806        H  0.37427728  0.78018144  0.94369961     0.11900
H807        H  0.40499295  0.81689728  0.98378276     0.12500
H808        H  0.35718893  0.90994319  0.94321436     0.14400
C809        C  0.40032447  0.92907608  0.98822442    -0.05600
C810        C  0.41261620  0.94498946  0.95938465    -0.05500
C811        C  0.41010969  0.98142771  0.95418977    -0.23700
C812        C  0.39532659  0.00325942  0.97772530     0.18500
C813        C  0.38319340  0.98808533  0.00674768     0.15700
C814        C  0.38665750  0.95170043  0.01226937    -0.18700
C815        C  0.36846662  0.00964436  0.03037314    -0.20600
C816        C  0.36633507  0.04601375  0.02573932    -0.13100
C817        C  0.37841316  0.06230934  0.99689980     0.03600
C818        C  0.39330706  0.04005851  0.97316088    -0.25300
H819        H  0.42407470  0.92892494  0.94060863     0.08600
H820        H  0.41981246  0.99251432  0.93174374     0.12200
H821        H  0.37924964  0.94168836  0.03583880     0.12200
H822        H  0.35914573  0.99844251  0.05293974     0.11900
H823        H  0.35634912  0.06096655  0.04589579     0.12500
H824        H  0.40384286  0.05164708  0.95127622     0.14400
C825        C  0.41869018  0.11251865  0.98990316    -0.05600
C826        C  0.43273285  0.12768853  0.96132566    -0.05500
C827        C  0.46783155  0.13328817  0.95839397    -0.23700
C828        C  0.49048736  0.12275460  0.98320671     0.18500
C829        C  0.47739803  0.10638711  0.01139424     0.15700
C830        C  0.44195094  0.10165810  0.01468792    -0.18700
C831        C  0.50003757  0.09391580  0.03540208    -0.20600
C832        C  0.53515916  0.09770392  0.03153481    -0.13100
C833        C  0.54901760  0.11540123  0.00419043     0.03600
C834        C  0.52602619  0.12728964  0.97970950    -0.25300
H835        H  0.41722386  0.13451775  0.94023645     0.08600
H836        H  0.47732707  0.14507737  0.93616264     0.12200
H837        H  0.43232186  0.08867743  0.03630924     0.12200
H838        H  0.49064398  0.08069078  0.05697601     0.11900
H839        H  0.55193840  0.08705282  0.05036936     0.12500
H840        H  0.53544049  0.13877251  0.95739148     0.14400
C841        C  0.66704829  0.81158785  0.13868176    -0.05600
C842        C  0.63252682  0.80352415  0.13171894    -0.05500
C843        C  0.61551938  0.81868688  0.10487010    -0.23700
C844        C  0.63257657  0.84235466  0.08432588     0.18500
C845        C  0.66742389  0.85001495  0.09035653     0.15700
C846        C  0.68443720  0.83470058  0.11745174    -0.18700
C847        C  0.68465036  0.87270504  0.06905154    -0.20600
C848        C  0.66718733  0.88869122  0.04283220    -0.13100
C849        C  0.63167756  0.88361617  0.03779277     0.03600
C850        C  0.61515511  0.85864952  0.05807572    -0.25300
H851        H  0.61852826  0.78544359  0.14707494     0.08600
H852        H  0.58884781  0.81213046  0.10036591     0.12200
H853        H  0.71118379  0.84091224  0.12199191     0.12200
H854        H  0.71162650  0.87832336  0.07278498     0.11900
H855        H  0.68121706  0.90623915  0.02698177     0.12500
H856        H  0.58867508  0.85147113  0.05374983     0.14400
C857        C  0.44372692  0.88234784  0.99266618    -0.05600
C858        C  0.46033215  0.86694824  0.96558205    -0.05500
C859        C  0.49606770  0.86621164  0.96378281    -0.23700
C860        C  0.51661229  0.88106186  0.98875333     0.18500
C861        C  0.50066968  0.89598317  0.01621191     0.15700
C862        C  0.46475835  0.89717880  0.01769084    -0.18700
C863        C  0.52087203  0.91038151  0.04149293    -0.20600
C864        C  0.55638451  0.91086542  0.03928833    -0.13100
C865        C  0.57327404  0.89761103  0.01143720     0.03600
C866        C  0.55264842  0.88237320  0.98618156    -0.25300
H867        H  0.44605364  0.85688291  0.94464693     0.08600
H868        H  0.50762187  0.85476892  0.94233020     0.12200
H869        H  0.45295973  0.91030889  0.03818919     0.12200
H870        H  0.50919394  0.92173147  0.06292622     0.11900
H871        H  0.57099774  0.92263973  0.05932688     0.12500
H872        H  0.56403793  0.87249885  0.96409555     0.14400
C873        C  0.61642785  0.94466716  0.01290830    -0.05600
C874        C  0.63109051  0.96204566  0.04060554    -0.05500
C875        C  0.63098042  0.99899227  0.04333269    -0.23700
C876        C  0.61594612  0.01980792  0.01875864     0.18500
C877        C  0.60135042  0.00300349  0.99093650     0.15700
C878        C  0.60092297  0.96606853  0.98861529    -0.18700
C879        C  0.58646122  0.02327408  0.96610885    -0.20600
C880        C  0.58467050  0.05977270  0.96939068    -0.13100
C881        C  0.59755868  0.07741988  0.99767024     0.03600
C882        C  0.61386237  0.05687675  0.02217028    -0.25300
H883        H  0.64140315  0.94751810  0.06114349     0.08600
H884        H  0.64198832  0.01124844  0.06513144     0.12200
H885        H  0.58839972  0.95359135  0.96763231     0.12200
H886        H  0.57538445  0.01082939  0.94442261     0.11900
H887        H  0.57185880  0.07447926  0.95012586     0.12500
H888        H  0.62328298  0.06904601  0.04457863     0.14400
C889        C  0.86163976  0.32628822  0.84558187    -0.05600
C890        C  0.85976285  0.32830748  0.88000533    -0.05500
C891        C  0.88726339  0.34183009  0.89913342    -0.23700
C892        C  0.91755288  0.35353079  0.88441774     0.18500
C893        C  0.91947157  0.35197157  0.84995245     0.15700
C894        C  0.89187010  0.33847677  0.83092291    -0.18700
C895        C  0.94879817  0.36452660  0.83479560    -0.20600
C896        C  0.97625296  0.37773849  0.85339176    -0.13100
C897        C  0.97653081  0.37771601  0.88813217     0.03600
C898        C  0.94573938  0.36695392  0.90333243    -0.25300
H899        H  0.83703688  0.31924927  0.89225780     0.08600
H900        H  0.88490091  0.34285583  0.92550724     0.12200
H901        H  0.89414653  0.33733192  0.80452743     0.12200
H902        H  0.95051845  0.36436371  0.80833942     0.11900
H903        H  0.99812280  0.38767249  0.84031633     0.12500
H904        H  0.94267378  0.37012898  0.92936028     0.14400
C905        C  0.60258969  0.13877334  0.97222578    -0.05600
C906        C  0.59293323  0.17431082  0.96741866    -0.05500
C907        C  0.60870142  0.19553535  0.94379840    -0.23700
C908        C  0.63561031  0.18233442  0.92513771     0.18500
C909        C  0.64631664  0.14724980  0.93027415     0.15700
C910        C  0.63001214  0.12602872  0.95341345    -0.18700
C911        C  0.67361588  0.13378945  0.91245263    -0.20600
C912        C  0.68975688  0.15458344  0.88919028    -0.13100
C913        C  0.67923255  0.18932343  0.88339005     0.03600
C914        C  0.65214697  0.20333838  0.90152140    -0.25300
H915        H  0.57337909  0.18585893  0.98242378     0.08600
H916        H  0.60030906  0.22252577  0.94063471     0.12200
H917        H  0.64018732  0.09992604  0.95758378     0.12200
H918        H  0.68216337  0.10691432  0.91612137     0.11900
H919        H  0.71001134  0.14316780  0.87491661     0.12500
H920        H  0.64341916  0.22992127  0.89658372     0.14400
C921        C  0.82474800  0.13356638  0.66970882    -0.05600
C922        C  0.85053038  0.11454439  0.68635742    -0.05500
C923        C  0.86754701  0.08719890  0.67119593    -0.23700
C924        C  0.85980070  0.07843827  0.63873189     0.18500
C925        C  0.83589534  0.09856076  0.62062143     0.15700
C926        C  0.81820071  0.12614367  0.63627640    -0.18700
C927        C  0.82995261  0.09015016  0.58748627    -0.20600
C928        C  0.84651180  0.06136296  0.57301301    -0.13100
C929        C  0.86847043  0.03941363  0.59174734     0.03600
C930        C  0.87539635  0.04929605  0.62451450    -0.25300
H931        H  0.85714993  0.12005544  0.71173526     0.08600
H932        H  0.88642257  0.07245633  0.68514791     0.12200
H933        H  0.79892646  0.14091081  0.62287689     0.12200
H934        H  0.81242453  0.10574185  0.57276832     0.11900
H935        H  0.84155055  0.05653688  0.54732045     0.12500
H936        H  0.89266976  0.03344082  0.63931969     0.14400
C937        C  0.85509999  0.33557734  0.16689810    -0.05600
C938        C  0.84981745  0.34154860  0.13316115    -0.05500
C939        C  0.87573987  0.35632245  0.11428512    -0.23700
C940        C  0.90755862  0.36475629  0.12871589     0.18500
C941        C  0.91249320  0.35991234  0.16274480     0.15700
C942        C  0.88629848  0.34579417  0.18159031    -0.18700
C943        C  0.94374077  0.36888785  0.17750046    -0.20600
C944        C  0.97061285  0.38049301  0.15850514    -0.13100
C945        C  0.96761432  0.38214598  0.12392161     0.03600
C946        C  0.93476222  0.37710520  0.10971763    -0.25300
H947        H  0.82583826  0.33428953  0.12122459     0.08600
H948        H  0.87125103  0.36013590  0.08828347     0.12200
H949        H  0.89077452  0.34159575  0.20756320     0.12200
H950        H  0.94757900  0.36658161  0.20375645     0.11900
H951        H  0.99412670  0.38781366  0.17119075     0.12500
H952        H  0.93041117  0.38213402  0.08391235     0.14400
C953        C  0.68404291  0.19256189  0.11782321    -0.05600
C954        C  0.70512317  0.17584150  0.09513263    -0.05500
C955        C  0.69079140  0.15719995  0.06847007    -0.23700
C956        C  0.65517229  0.15564487  0.06379781     0.18500
C957        C  0.63406143  0.17367831  0.08592301     0.15700
C958        C  0.64852625  0.19150246  0.11301770    -0.18700
C959        C  0.59879808  0.17390746  0.08051941    -0.20600
C960        C  0.58434475  0.15610079  0.05376284    -0.13100
C961        C  0.60444553  0.13559723  0.03236472     0.03600
C962        C  0.64030607  0.13659069  0.03741139    -0.25300
H963        H  0.73260612  0.17605424  0.09878339     0.08600
H964        H  0.70751538  0.14377280  0.05171150     0.12200
H965        H  0.63220346  0.20444582  0.13050946     0.12200
H966        H  0.58233231  0.18860072  0.09662120     0.11900
H967        H  0.55721884  0.15951178  0.04981784     0.12500
H968        H  0.65661170  0.12276205  0.02054127     0.14400
C969        C  0.86708045  0.01120082  0.37102212    -0.05600
C970        C  0.83478209  0.00461636  0.35599894    -0.05500
C971        C  0.81387693  0.03228189  0.34595450    -0.23700
C972        C  0.82416424  0.06720988  0.35138624     0.18500
C973        C  0.85453326  0.07444360  0.36943881     0.15700
C974        C  0.87523503  0.04644933  0.37983495    -0.18700
C975        C  0.86458947  0.10961280  0.37515842    -0.20600
C976        C  0.84593582  0.13719302  0.36104089    -0.13100
C977        C  0.81688003  0.12979434  0.34157612     0.03600
C978        C  0.80540563  0.09496318  0.33771815    -0.25300
H979        H  0.82529024  0.97817934  0.35149361     0.08600
H980        H  0.79001915  0.02631776  0.33315439     0.12200
H981        H  0.89884989  0.05215540  0.39316468     0.12200
H982        H  0.88773267  0.11567661  0.38908742     0.11900
H983        H  0.85517047  0.16408965  0.36380810     0.12500
H984        H  0.78305107  0.08941882  0.32241030     0.14400
C985        C  0.11832999  0.97063926  0.36874341    -0.05600
C986        C  0.15386752  0.97232457  0.37517328    -0.05500
C987        C  0.17579442  0.94606112  0.36368041    -0.23700
C988        C  0.16288622  0.91764555  0.34490087     0.18500
C989        C  0.12784679  0.91654537  0.33658456     0.15700
C990        C  0.10631828  0.94336885  0.34740967    -0.18700
C991        C  0.11463153  0.88846416  0.31763273    -0.20600
C992        C  0.13588137  0.86126433  0.30737069    -0.13100
C993        C  0.17092656  0.86178875  0.31542109     0.03600
C994        C  0.18430595  0.89042780  0.33408655    -0.25300
H995        H  0.16458610  0.99381967  0.38968456     0.08600
H996        H  0.20281505  0.94782934  0.36975049     0.12200
H997        H  0.08013645  0.94262150  0.33858148     0.12200
H998        H  0.08770065  0.88731357  0.31102985     0.11900
H999        H  0.12483039  0.83989017  0.29293072     0.12500
H1000       H  0.21129912  0.89147112  0.34045551     0.14400
C1001       C  0.38699150  0.87545818  0.02500556    -0.05600
C1002       C  0.35153467  0.88129396  0.02841959    -0.05500
C1003       C  0.33405710  0.87003029  0.05596989    -0.23700
C1004       C  0.35102083  0.85116364  0.08062505     0.18500
C1005       C  0.38593887  0.84311011  0.07719673     0.15700
C1006       C  0.40366779  0.85503845  0.04945580    -0.18700
C1007       C  0.40240570  0.82300159  0.10154558    -0.20600
C1008       C  0.38458506  0.81146367  0.12908977    -0.13100
C1009       C  0.34985825  0.81976239  0.13296688     0.03600
C1010       C  0.33334005  0.83970561  0.10836186    -0.25300
H1011       H  0.33734095  0.89542428  0.00966678     0.08600
H1012       H  0.30710130  0.87590795  0.05784188     0.12200
H1013       H  0.43005769  0.84748811  0.04686010     0.12200
H1014       H  0.42909012  0.81613420  0.09928620     0.11900
H1015       H  0.39799225  0.79575569  0.14724273     0.12500
H1016       H  0.30653510  0.84614979  0.11057087     0.14400
C1017       C  0.03968142  0.62856960  0.12234148    -0.05600
C1018       C  0.04237259  0.66577611  0.12004181    -0.05500
C1019       C  0.06811981  0.68438227  0.13699045    -0.23700
C1020       C  0.09206932  0.66625079  0.15629537     0.18500
C1021       C  0.09241775  0.62893744  0.15526870     0.15700
C1022       C  0.06751437  0.61045319  0.13671619    -0.18700
C1023       C  0.11681848  0.61062202  0.17395072    -0.20600
C1024       C  0.14028722  0.62906972  0.19380189    -0.13100
C1025       C  0.13981282  0.66613796  0.19547845     0.03600
C1026       C  0.11568260  0.68468347  0.17651821    -0.25300
H1027       H  0.02246670  0.68068332  0.10771985     0.08600
H1028       H  0.06809635  0.71297969  0.13645420     0.12200
H1029       H  0.06917383  0.58205987  0.13536809     0.12200
H1030       H  0.11759350  0.58202867  0.17342613     0.11900
H1031       H  0.15931841  0.61437588  0.20757770     0.12500
H1032       H  0.11602965  0.71331212  0.17672923     0.14400
C1033       C  0.31316015  0.19525456  0.87122389    -0.05600
C1034       C  0.32513703  0.21796805  0.89613162    -0.05500
C1035       C  0.33992778  0.20423567  0.92470319    -0.23700
C1036       C  0.34195118  0.16758177  0.92912398     0.18500
C1037       C  0.32845126  0.14456441  0.90487034     0.15700
C1038       C  0.31472238  0.15852964  0.87572497    -0.18700
C1039       C  0.32875786  0.10805927  0.91030006    -0.20600
C1040       C  0.34353785  0.09431610  0.93893365    -0.13100
C1041       C  0.35994495  0.11671959  0.96215347     0.03600
C1042       C  0.35760669  0.15363612  0.95725253    -0.25300
H1043       H  0.32392177  0.24633122  0.89303791     0.08600
H1044       H  0.34986841  0.22225065  0.94327791     0.12200
H1045       H  0.30490973  0.14095277  0.85669982     0.12200
H1046       H  0.31743925  0.09007674  0.89241222     0.11900
H1047       H  0.34210650  0.06612183  0.94225483     0.12500
H1048       H  0.36908151  0.17154709  0.97514118     0.14400
C1049       C  0.04270736  0.37547899  0.89382591    -0.05600
C1050       C  0.07522867  0.39082357  0.90093736    -0.05500
C1051       C  0.10499469  0.37822304  0.88687789    -0.23700
C1052       C  0.10345128  0.35001535  0.86486824     0.18500
C1053       C  0.07191316  0.33255773  0.85900907     0.15700
C1054       C  0.04236861  0.34405227  0.87490280    -0.18700
C1055       C  0.07008220  0.30496370  0.83603847    -0.20600
C1056       C  0.09882165  0.29596473  0.81805335    -0.13100
C1057       C  0.13016161  0.31334151  0.82371952     0.03600
C1058       C  0.13264450  0.33973765  0.84780450    -0.25300
H1059       H  0.07797572  0.41438412  0.91549523     0.08600
H1060       H  0.12899111  0.39180689  0.89195615     0.12200
H1061       H  0.01893746  0.32921781  0.87098936     0.12200
H1062       H  0.04614963  0.29123540  0.83110417     0.11900
H1063       H  0.09667298  0.27526751  0.79973499     0.12500
H1064       H  0.15684694  0.35323396  0.85215827     0.14400
C1065       C  0.10737120  0.02942068  0.59975046    -0.05600
C1066       C  0.09389490  0.03873202  0.63051997    -0.05500
C1067       C  0.10685924  0.06721416  0.64857721    -0.23700
C1068       C  0.13474697  0.08657709  0.63729831     0.18500
C1069       C  0.14911418  0.07791965  0.60688313     0.15700
C1070       C  0.13532713  0.04958799  0.58821700    -0.18700
C1071       C  0.17765465  0.09717922  0.59622649    -0.20600
C1072       C  0.19209470  0.12415063  0.61582510    -0.13100
C1073       C  0.17833016  0.13233803  0.64650483     0.03600
C1074       C  0.14919957  0.11364046  0.65669141    -0.25300
H1075       H  0.07369559  0.02323786  0.64129950     0.08600
H1076       H  0.09576721  0.07329173  0.67204424     0.12200
H1077       H  0.14738595  0.04249479  0.56550225     0.20200
H1078       H  0.18915378  0.09102045  0.57297789     0.11900
H1079       H  0.21446264  0.13807839  0.60726892     0.12500
H1080       H  0.13796306  0.11971148  0.68010640     0.14400
C1081       C  0.52739420  0.11537217  0.62275062    -0.05600
C1082       C  0.52137066  0.13770937  0.65014974    -0.05500
C1083       C  0.54781367  0.15209230  0.66930233    -0.23700
C1084       C  0.58180286  0.14640963  0.66143156     0.18500
C1085       C  0.58946091  0.12491309  0.63433076     0.15700
C1086       C  0.56243808  0.10887856  0.61572714    -0.18700
C1087       C  0.62399708  0.12098895  0.62585382    -0.20600
C1088       C  0.65021257  0.13863082  0.64375053    -0.13100
C1089       C  0.64252758  0.15975570  0.67105535     0.03600
C1090       C  0.60810826  0.16302396  0.67981263    -0.25300
H1091       H  0.49611934  0.14571504  0.65705639     0.08600
H1092       H  0.54149017  0.16894907  0.68980145     0.12200
H1093       H  0.56860125  0.09297694  0.59455313     0.12200
H1094       H  0.63070483  0.10475155  0.60508158     0.11900
H1095       H  0.67649914  0.13537090  0.63654358     0.12500
H1096       H  0.60163833  0.17947808  0.70055971     0.14400
C1097       C  0.35486639  0.17003515  0.65920620    -0.05600
C1098       C  0.36275532  0.18672038  0.62954703    -0.05500
C1099       C  0.39130399  0.17668537  0.61182301    -0.23700
C1100       C  0.41223850  0.14924830  0.62302422     0.18500
C1101       C  0.40375515  0.13122605  0.65203926     0.15700
C1102       C  0.37538221  0.14196533  0.67019011    -0.18700
C1103       C  0.42429087  0.10338484  0.66283326    -0.20600
C1104       C  0.45312853  0.09379850  0.64534750    -0.13100
C1105       C  0.46266821  0.11191012  0.61655309     0.03600
C1106       C  0.44182077  0.14013233  0.60596801    -0.25300
H1107       H  0.34753644  0.20854749  0.62060721     0.08600
H1108       H  0.39722117  0.19069429  0.58951936     0.12200
H1109       H  0.36947218  0.12876691  0.69293624     0.12200
H1110       H  0.41832601  0.08925969  0.68506385     0.11900
H1111       H  0.46885625  0.07268355  0.65495286     0.12500
H1112       H  0.44882891  0.15594169  0.58511828     0.14400
C1113       C  0.46912476  0.86693563  0.61484215    -0.05600
C1114       C  0.46584302  0.82963312  0.61404857    -0.05500
C1115       C  0.43663094  0.81235753  0.62501315    -0.23700
C1116       C  0.40960355  0.83155745  0.63785208     0.18500
C1117       C  0.41249977  0.86873643  0.64030914     0.15700
C1118       C  0.44227128  0.88621369  0.62916459    -0.18700
C1119       C  0.38563325  0.88764393  0.65432781    -0.20600
C1120       C  0.35672815  0.86989537  0.66613184    -0.13100
C1121       C  0.35358448  0.83297166  0.66352143     0.03600
C1122       C  0.38018873  0.81398092  0.64920548    -0.25300
H1123       H  0.48593478  0.81372526  0.60378561     0.08600
H1124       H  0.43519227  0.78382475  0.62333121     0.12200
H1125       H  0.44417644  0.91452623  0.63192417     0.12200
H1126       H  0.38729620  0.91609381  0.65685013     0.11900
H1127       H  0.33712183  0.88494423  0.67817668     0.12500
H1128       H  0.37866570  0.78539483  0.64830099     0.14400
C1129       C  0.50605622  0.92466838  0.60385337    -0.05600
C1130       C  0.53607419  0.94065492  0.61781445    -0.05500
C1131       C  0.54036829  0.97722642  0.61975538    -0.23700
C1132       C  0.51556474  0.99976086  0.60688020     0.18500
C1133       C  0.48619986  0.98488839  0.59164145     0.15700
C1134       C  0.48176084  0.94781206  0.58981854    -0.18700
C1135       C  0.46118655  0.00742571  0.57933225    -0.20600
C1136       C  0.46508155  0.04398546  0.58224201    -0.13100
C1137       C  0.49497526  0.06023030  0.59601524     0.03600
C1138       C  0.51976628  0.03685015  0.60919345    -0.25300
H1139       H  0.55745859  0.92542585  0.62673709     0.08600
H1140       H  0.56354625  0.98786894  0.63101040     0.12200
H1141       H  0.45930741  0.93687614  0.57748868     0.12200
H1142       H  0.43774676  0.99678491  0.56861198     0.11900
H1143       H  0.44277647  0.05902936  0.57600879     0.12500
H1144       H  0.54189910  0.04666077  0.62243360     0.14400
C1145       C  0.47316395  0.12478680  0.38014202    -0.05600
C1146       C  0.45273750  0.09754534  0.36563578    -0.05500
C1147       C  0.42566532  0.10501357  0.34407026    -0.23700
C1148       C  0.41842705  0.13983291  0.33539469     0.18500
C1149       C  0.43819816  0.16751757  0.34947318     0.15700
C1150       C  0.46372135  0.15998452  0.37321649    -0.18700
C1151       C  0.43225337  0.20228919  0.33932673    -0.20600
C1152       C  0.40632009  0.20961098  0.31635907    -0.13100
C1153       C  0.38500596  0.18253828  0.30390353     0.03600
C1154       C  0.39136323  0.14751069  0.31336224    -0.25300
H1155       H  0.45675650  0.07003135  0.37128516     0.08600
H1156       H  0.41059700  0.08337534  0.33387332     0.12200
H1157       H  0.47786243  0.18147428  0.38482927     0.12200
H1158       H  0.44746303  0.22389151  0.34935962     0.11900
H1159       H  0.40160043  0.23684544  0.30975627     0.12500
H1160       H  0.37503999  0.12643223  0.30391693     0.14400
C1161       C  0.53783805  0.13464735  0.39449370    -0.05600
C1162       C  0.56844526  0.12675246  0.41211645    -0.05500
C1163       C  0.60058810  0.13654331  0.40060547    -0.23700
C1164       C  0.60349745  0.15272229  0.37007558     0.18500
C1165       C  0.57347716  0.16001723  0.35168226     0.15700
C1166       C  0.54138784  0.15154631  0.36395329    -0.18700
C1167       C  0.57579266  0.17420105  0.32031005    -0.20600
C1168       C  0.60751887  0.18073410  0.30705457    -0.13100
C1169       C  0.63775695  0.17368164  0.32491061     0.03600
C1170       C  0.63574603  0.16028023  0.35682835    -0.25300
H1171       H  0.56760150  0.11113271  0.43424382     0.08600
H1172       H  0.62322601  0.12980032  0.41484354     0.12200
H1173       H  0.51988175  0.15523254  0.34755497     0.12200
H1174       H  0.55303975  0.17986242  0.30578471     0.11900
H1175       H  0.60834010  0.19193831  0.28272199     0.12500
H1176       H  0.65896307  0.15484159  0.37072448     0.14400
C1177       C  0.49199826  0.12707499  0.43966572    -0.05600
C1178       C  0.45942178  0.11594866  0.45035035    -0.05500
C1179       C  0.45228319  0.11335055  0.48367704    -0.23700
C1180       C  0.47740713  0.12191075  0.50727667     0.18500
C1181       C  0.50770204  0.13842027  0.49739770     0.15700
C1182       C  0.51404522  0.14275016  0.46372384    -0.18700
C1183       C  0.53163710  0.14900841  0.52144098    -0.20600
C1184       C  0.52721515  0.13982684  0.55438295    -0.13100
C1185       C  0.49924840  0.11854551  0.56443044     0.03600
C1186       C  0.47308161  0.11298097  0.54033314    -0.25300
H1187       H  0.44067044  0.10531557  0.43314985     0.08600
H1188       H  0.42811641  0.10189833  0.49086715     0.12200
H1189       H  0.53714972  0.15634793  0.45703526     0.12200
H1190       H  0.55443081  0.16345873  0.51468703     0.11900
H1191       H  0.54632408  0.14972739  0.57135987     0.12500
H1192       H  0.44872640  0.10223185  0.54681983     0.14400
C1193       C  0.54052356  0.88879619  0.37932994    -0.05600
C1194       C  0.53820183  0.89840142  0.34586507    -0.05500
C1195       C  0.55976032  0.88371971  0.32248831    -0.23700
C1196       C  0.58320784  0.85756385  0.33145847     0.18500
C1197       C  0.58504686  0.84659917  0.36446883     0.15700
C1198       C  0.56415122  0.86211929  0.38784609    -0.18700
C1199       C  0.60748627  0.81971177  0.37377553    -0.20600
C1200       C  0.62859213  0.80442030  0.35079225    -0.13100
C1201       C  0.62761492  0.81546063  0.31804748     0.03600
C1202       C  0.60466368  0.84187352  0.30818504    -0.25300
H1203       H  0.51889668  0.91684498  0.33760064     0.08600
H1204       H  0.55740974  0.89215288  0.29723140     0.12200
H1205       H  0.56548167  0.85153564  0.41234738     0.12200
H1206       H  0.60906804  0.81080506  0.39894795     0.11900
H1207       H  0.64644457  0.78430160  0.35875141     0.12500
H1208       H  0.60420497  0.85071549  0.28297134     0.14400
C1209       C  0.47852243  0.88838135  0.38908192    -0.05600
C1210       C  0.45204669  0.91170577  0.37932635    -0.05500
C1211       C  0.42380432  0.89985968  0.36101500    -0.23700
C1212       C  0.42168389  0.86478922  0.35045693     0.18500
C1213       C  0.44746284  0.84083509  0.35986630     0.15700
C1214       C  0.47481030  0.85237737  0.38012261    -0.18700
C1215       C  0.44614536  0.80610841  0.34769327    -0.20600
C1216       C  0.41968550  0.79542357  0.32620051    -0.13100
C1217       C  0.39359714  0.81897939  0.31729472     0.03600
C1218       C  0.39461527  0.85357192  0.32987938    -0.25300
H1219       H  0.45313760  0.93966164  0.38440896     0.08600
H1220       H  0.40432877  0.91864711  0.35380065     0.12200
H1221       H  0.49465579  0.83387090  0.38699220     0.12200
H1222       H  0.46580969  0.78736020  0.35443776     0.11900
H1223       H  0.41907200  0.76846697  0.31725850     0.12500
H1224       H  0.37456983  0.87195678  0.32317103     0.14400
C1225       C  0.52084815  0.88780520  0.43910729    -0.05600
C1226       C  0.55111328  0.89966785  0.45538563    -0.05500
C1227       C  0.55484461  0.89793731  0.48941710    -0.23700
C1228       C  0.52825237  0.88476225  0.50835958     0.18500
C1229       C  0.49897909  0.87036525  0.49247306     0.15700
C1230       C  0.49577107  0.87100347  0.45808391    -0.18700
C1231       C  0.47196561  0.85827608  0.51127435    -0.20600
C1232       C  0.47319450  0.86161432  0.54527135    -0.13100
C1233       C  0.50220739  0.87597864  0.56222009     0.03600
C1234       C  0.52965868  0.88760208  0.54281384    -0.25300
H1235       H  0.57088290  0.91292357  0.44173476     0.08600
H1236       H  0.57769690  0.90889663  0.50099757     0.12200
H1237       H  0.47207415  0.86189404  0.44681547     0.12200
H1238       H  0.44895585  0.84777191  0.49958250     0.11900
H1239       H  0.45009193  0.85419426  0.55755835     0.12500
H1240       H  0.55163736  0.90019522  0.55454669     0.14400
C1241       C  0.51223669  0.94243194  0.40888887    -0.05600
C1242       C  0.49211821  0.95587857  0.43465885    -0.05500
C1243       C  0.49079155  0.99168878  0.44159898    -0.23700
C1244       C  0.50645720  0.01575130  0.42092113     0.18500
C1245       C  0.52450599  0.00345316  0.39365370     0.15700
C1246       C  0.52961532  0.96710191  0.38927008    -0.18700
C1247       C  0.53561040  0.02763596  0.37035999    -0.20600
C1248       C  0.52769460  0.06328075  0.37363785    -0.13100
C1249       C  0.51178522  0.07653323  0.40210594     0.03600
C1250       C  0.50264691  0.05192916  0.42629650    -0.25300
H1251       H  0.47730987  0.93842899  0.44986303     0.08600
H1252       H  0.47584364  0.00061177  0.46209419     0.12200
H1253       H  0.54604815  0.95887231  0.36985949     0.12200
H1254       H  0.54861262  0.01877215  0.34864831     0.11900
H1255       H  0.53433401  0.08067523  0.35376196     0.12500
H1256       H  0.49098067  0.05988319  0.44876337     0.14400
C1257       C  0.64122893  0.62746122  0.19414146    -0.05600
C1258       C  0.64583929  0.59579297  0.21132140    -0.05500
C1259       C  0.63555798  0.56375168  0.19744480    -0.23700
C1260       C  0.62060360  0.56295765  0.16605640     0.18500
C1261       C  0.61308094  0.59489988  0.14981057     0.15700
C1262       C  0.62356072  0.62720883  0.16396140    -0.18700
C1263       C  0.59656953  0.59371551  0.11915007    -0.20600
C1264       C  0.58942298  0.56123657  0.10402978    -0.13100
C1265       C  0.60065228  0.52912575  0.11803321     0.03600
C1266       C  0.61442333  0.53062892  0.15028092    -0.25300
H1267       H  0.66003634  0.59561020  0.23435233     0.08600
H1268       H  0.64110546  0.53950495  0.21045097     0.12200
H1269       H  0.62060454  0.65159191  0.15040381     0.12200
H1270       H  0.58946901  0.61786731  0.10670905     0.11900
H1271       H  0.57596341  0.56120857  0.08062406     0.12500
H1272       H  0.62056081  0.50686434  0.16364181     0.14400
C1273       C  0.68601603  0.36394140  0.15852169    -0.05600
C1274       C  0.70730361  0.39007428  0.14551102    -0.05500
C1275       C  0.69326156  0.42145297  0.13366761    -0.23700
C1276       C  0.65778769  0.42659107  0.13426147     0.18500
C1277       C  0.63624440  0.39951021  0.14573335     0.15700
C1278       C  0.65051751  0.36853667  0.15813399    -0.18700
C1279       C  0.60080423  0.40385871  0.14482812    -0.20600
C1280       C  0.58655875  0.43437710  0.13162552    -0.13100
C1281       C  0.60759745  0.46204025  0.12023934     0.03600
C1282       C  0.64346474  0.45804583  0.12298625    -0.25300
H1283       H  0.73481644  0.38707324  0.14629946     0.08600
H1284       H  0.71010809  0.44185034  0.12453588     0.12200
H1285       H  0.63413937  0.34832221  0.16838116     0.12200
H1286       H  0.58399963  0.38307967  0.15330632     0.11900
H1287       H  0.55908963  0.43509724  0.12942974     0.12500
H1288       H  0.66013440  0.47878207  0.11412335     0.14400
C1289       C  0.63063433  0.48074046  0.88823464    -0.05600
C1290       C  0.62056785  0.47539572  0.85520035    -0.05500
C1291       C  0.63398398  0.44805460  0.83666557    -0.23700
C1292       C  0.65793698  0.42511350  0.85057029     0.18500
C1293       C  0.67001859  0.43095852  0.88287673     0.15700
C1294       C  0.65746698  0.45959131  0.90095873    -0.18700
C1295       C  0.69399933  0.40764761  0.89667606    -0.20600
C1296       C  0.70533090  0.37848768  0.87875012    -0.13100
C1297       C  0.69340140  0.37255315  0.84646950     0.03600
C1298       C  0.66985731  0.39636227  0.83256844    -0.25300
H1299       H  0.60167800  0.49228049  0.84373436     0.08600
H1300       H  0.62501322  0.44440599  0.81161378     0.12200
H1301       H  0.66901865  0.46515785  0.92464150     0.12200
H1302       H  0.70354952  0.41162208  0.92149542     0.11900
H1303       H  0.72357175  0.36074784  0.89009197     0.12500
H1304       H  0.66037936  0.39241156  0.80770918     0.14400
C1305       C  0.62267870  0.51204747  0.94516726    -0.05600
C1306       C  0.62955266  0.54459748  0.96177409    -0.05500
C1307       C  0.63259870  0.54657855  0.99578750    -0.23700
C1308       C  0.62782718  0.51645746  0.01466369     0.18500
C1309       C  0.62372628  0.48355362  0.99896327     0.15700
C1310       C  0.62271451  0.48143842  0.96483373    -0.18700
C1311       C  0.61818039  0.45334669  0.01754635    -0.20600
C1312       C  0.61157968  0.45660317  0.05068851    -0.13100
C1313       C  0.61201373  0.49008471  0.06653459     0.03600
C1314       C  0.62441783  0.51914199  0.04869062    -0.25300
H1315       H  0.63169234  0.56947744  0.94933254     0.08600
H1316       H  0.63636648  0.57216456  0.00733394     0.12200
H1317       H  0.62122080  0.45546790  0.95407580     0.12200
H1318       H  0.61553004  0.42765026  0.00597266     0.11900
H1319       H  0.60296790  0.43313607  0.06321811     0.12500
H1320       H  0.62877045  0.54452591  0.06000994     0.14400
C1321       C  0.36968696  0.47324790  0.11518589    -0.05600
C1322       C  0.34688048  0.48049567  0.14081898    -0.05500
C1323       C  0.33344070  0.45357917  0.15981887    -0.23700
C1324       C  0.34328020  0.41869058  0.15485178     0.18500
C1325       C  0.36755633  0.41057557  0.13094903     0.15700
C1326       C  0.38046804  0.43776627  0.11125622    -0.18700
C1327       C  0.37824948  0.37539610  0.12723053    -0.20600
C1328       C  0.36384039  0.34849598  0.14624296    -0.13100
C1329       C  0.33840385  0.35657162  0.16883485     0.03600
C1330       C  0.32888563  0.39180157  0.17344813    -0.25300
H1331       H  0.33955231  0.50694918  0.14730864     0.08600
H1332       H  0.31553082  0.46019309  0.17879410     0.12200
H1333       H  0.39912811  0.43146921  0.09286807     0.12200
H1334       H  0.39717973  0.36863650  0.10926000     0.11900
H1335       H  0.37140998  0.32137615  0.14232141     0.12500
H1336       H  0.30957227  0.39820971  0.19121355     0.14400
C1337       C  0.37269147  0.54005145  0.10416323    -0.05600
C1338       C  0.33783107  0.54762730  0.09814654    -0.05500
C1339       C  0.32351547  0.57921746  0.10879131    -0.23700
C1340       C  0.34371361  0.60429637  0.12556251     0.18500
C1341       C  0.37902292  0.59846494  0.12987192     0.15700
C1342       C  0.39345983  0.56719800  0.11807110    -0.18700
C1343       C  0.39916495  0.62342168  0.14707138    -0.20600
C1344       C  0.38410384  0.65295126  0.16140412    -0.13100
C1345       C  0.34879303  0.65852622  0.15801444     0.03600
C1346       C  0.32897275  0.63453543  0.13904117    -0.25300
H1347       H  0.32129786  0.52814128  0.08638552     0.08600
H1348       H  0.29639722  0.58347373  0.10487035     0.12200
H1349       H  0.42077728  0.56433824  0.12056301     0.12200
H1350       H  0.42635871  0.61936155  0.15059027     0.11900
H1351       H  0.39994630  0.67091138  0.17583984     0.12500
H1352       H  0.30166186  0.63826503  0.13617686     0.14400
C1353       C  0.55459310  0.49137837  0.09413284    -0.05600
C1354       C  0.53998457  0.48775737  0.06227686    -0.05500
C1355       C  0.50506389  0.48601784  0.05725330    -0.23700
C1356       C  0.48325171  0.49012521  0.08342489     0.18500
C1357       C  0.49645735  0.49538700  0.11534019     0.15700
C1358       C  0.53204143  0.49560265  0.12064564    -0.18700
C1359       C  0.47369870  0.50048923  0.14104960    -0.20600
C1360       C  0.43845264  0.50231542  0.13450523    -0.13100
C1361       C  0.42523900  0.49936819  0.10207946     0.03600
C1362       C  0.44828893  0.49025469  0.07742134    -0.25300
H1363       H  0.55481923  0.48682331  0.04035501     0.08600
H1364       H  0.49508352  0.48284523  0.03245646     0.12200
H1365       H  0.54232920  0.49937877  0.14524086     0.12200
H1366       H  0.48312879  0.50388015  0.16597499     0.11900
H1367       H  0.42141334  0.50709924  0.15462361     0.12500
H1368       H  0.43971563  0.48324060  0.05298915     0.14400
C1369       C  0.38233468  0.52717138  0.87740008    -0.05600
C1370       C  0.38149314  0.52579360  0.84280550    -0.05500
C1371       C  0.36249396  0.54981378  0.82443360    -0.23700
C1372       C  0.34374909  0.57604241  0.84005679     0.18500
C1373       C  0.34304202  0.57737248  0.87450220     0.15700
C1374       C  0.36147442  0.55251344  0.89288692    -0.18700
C1375       C  0.32418736  0.60386247  0.89000631    -0.20600
C1376       C  0.30686440  0.62931497  0.87143935    -0.13100
C1377       C  0.30781593  0.62840362  0.83707472     0.03600
C1378       C  0.32601444  0.60121311  0.82165531    -0.25300
H1379       H  0.39621445  0.50621737  0.82991788     0.08600
H1380       H  0.36293125  0.54820190  0.79794400     0.12200
H1381       H  0.35912076  0.55342339  0.91916106     0.12200
H1382       H  0.32336796  0.60529397  0.91648504     0.11900
H1383       H  0.29317938  0.64994702  0.88397586     0.12500
H1384       H  0.32706464  0.59989368  0.79516931     0.14400
C1385       C  0.31236216  0.36741627  0.83534050    -0.05600
C1386       C  0.29200825  0.38792063  0.85592077    -0.05500
C1387       C  0.30630016  0.41646374  0.87342953    -0.23700
C1388       C  0.34125714  0.42453075  0.87097661     0.18500
C1389       C  0.36207105  0.40286213  0.85163527     0.15700
C1390       C  0.34752434  0.37465522  0.83381790    -0.18700
C1391       C  0.39687253  0.41057878  0.84925042    -0.20600
C1392       C  0.41091642  0.44024870  0.86483925    -0.13100
C1393       C  0.39064225  0.46314705  0.88382757     0.03600
C1394       C  0.35547833  0.45455055  0.88650684    -0.25300
H1395       H  0.26480693  0.38282000  0.85732576     0.08600
H1396       H  0.28989611  0.43267303  0.88828280     0.12200
H1397       H  0.36343021  0.35873633  0.81816126     0.12200
H1398       H  0.41313307  0.39430169  0.83429242     0.11900
H1399       H  0.43741499  0.44576930  0.86002607     0.12500
H1400       H  0.33892124  0.47213203  0.89982686     0.14400
C1401       C  0.44300275  0.50450856  0.88975349    -0.05600
C1402       C  0.45659689  0.53212896  0.87045457    -0.05500
C1403       C  0.49191993  0.53674236  0.86731844    -0.23700
C1404       C  0.51479633  0.51487502  0.88430695     0.18500
C1405       C  0.50181962  0.48709353  0.90326761     0.15700
C1406       C  0.46645650  0.48205974  0.90589574    -0.18700
C1407       C  0.52450717  0.46447599  0.91914294    -0.20600
C1408       C  0.55951298  0.47129427  0.91879696    -0.13100
C1409       C  0.57332508  0.50193183  0.90404692     0.03600
C1410       C  0.55035693  0.52091578  0.88341098    -0.25300
H1411       H  0.44045782  0.55128952  0.85846985     0.08600
H1412       H  0.50132127  0.55840402  0.85265099     0.12200
H1413       H  0.45689587  0.46083953  0.92104187     0.12200
H1414       H  0.51521387  0.44145107  0.93201897     0.11900
H1415       H  0.57526996  0.45139443  0.92956650     0.12500
H1416       H  0.55956807  0.54000380  0.86606326     0.14400
C1417       C  0.40071704  0.50486090  0.93409663    -0.05600
C1418       C  0.41458218  0.53595408  0.94860080    -0.05500
C1419       C  0.41169652  0.54283300  0.98199693    -0.23700
C1420       C  0.39476414  0.51891228  0.00215560     0.18500
C1421       C  0.38086895  0.48761669  0.98856863     0.15700
C1422       C  0.38475669  0.48024566  0.95502170    -0.18700
C1423       C  0.36341557  0.46406599  0.00888377    -0.20600
C1424       C  0.36194430  0.47014295  0.04267833    -0.13100
C1425       C  0.37908000  0.49934298  0.05718849     0.03600
C1426       C  0.39298551  0.52503314  0.03597806    -0.25300
H1427       H  0.42734387  0.55543047  0.93369683     0.08600
H1428       H  0.42279210  0.56691792  0.99204785     0.12200
H1429       H  0.37539195  0.45518779  0.94586404     0.12200
H1430       H  0.35143707  0.44048665  0.99872178     0.11900
H1431       H  0.34840051  0.45103059  0.05716164     0.12500
H1432       H  0.40543042  0.54829751  0.04631722     0.14400
C1433       C  0.11927024  0.62829900  0.52443831    -0.05600
C1434       C  0.15478154  0.62283314  0.52860562    -0.05500
C1435       C  0.17365747  0.63918824  0.55396792    -0.23700
C1436       C  0.15788852  0.66230872  0.57577606     0.18500
C1437       C  0.12248799  0.66855106  0.57216961     0.15700
C1438       C  0.10358775  0.65196903  0.54656069    -0.18700
C1439       C  0.10659105  0.69155297  0.59416968    -0.20600
C1440       C  0.12542817  0.70761814  0.61973993    -0.13100
C1441       C  0.16072631  0.70192643  0.62331766     0.03600
C1442       C  0.17689740  0.67934912  0.60106209    -0.25300
H1443       H  0.16818614  0.60614949  0.51158457     0.08600
H1444       H  0.20081266  0.63412795  0.55618560     0.12200
H1445       H  0.07698534  0.65887274  0.54342445     0.12200
H1446       H  0.07944821  0.69668587  0.59193257     0.11900
H1447       H  0.11238541  0.72445610  0.63692068     0.12500
H1448       H  0.20398125  0.67418798  0.60410767     0.14400
C1449       C  0.18130026  0.67291067  0.36212637    -0.05600
C1450       C  0.18839531  0.63700367  0.36715976    -0.05500
C1451       C  0.17450946  0.61871190  0.39336944    -0.23700
C1452       C  0.15339539  0.63596220  0.41553232     0.18500
C1453       C  0.14606405  0.67212315  0.41113278     0.15700
C1454       C  0.15968810  0.69042357  0.38408187    -0.18700
C1455       C  0.12610070  0.68932425  0.43443524    -0.20600
C1456       C  0.11270087  0.67061525  0.46098976    -0.13100
C1457       C  0.11754933  0.63378419  0.46436894     0.03600
C1458       C  0.13972992  0.61738095  0.44204889    -0.25300
H1459       H  0.20513841  0.62303379  0.35079123     0.08600
H1460       H  0.18058126  0.59103831  0.39645722     0.12200
H1461       H  0.15467855  0.71832358  0.38089238     0.12200
H1462       H  0.12081152  0.71725634  0.43215248     0.11900
H1463       H  0.09734659  0.68471093  0.47846521     0.12500
H1464       H  0.14695109  0.59008210  0.44516947     0.14400
C1465       C  0.87715826  0.61757976  0.48306604    -0.05600
C1466       C  0.88348651  0.65376877  0.47673632    -0.05500
C1467       C  0.87162357  0.66992886  0.44796036    -0.23700
C1468       C  0.85150505  0.65096115  0.42520537     0.18500
C1469       C  0.84222262  0.61574182  0.43236472     0.15700
C1470       C  0.85464983  0.59950825  0.46113960    -0.18700
C1471       C  0.82035778  0.59728112  0.41069264    -0.20600
C1472       C  0.80811520  0.61336234  0.38211124    -0.13100
C1473       C  0.81786824  0.64804529  0.37416202     0.03600
C1474       C  0.83969388  0.66680887  0.39589362    -0.25300
H1475       H  0.89889654  0.66930691  0.49381186     0.08600
H1476       H  0.87818251  0.69732459  0.44356243     0.12200
H1477       H  0.84587907  0.57307434  0.46642116     0.12200
H1478       H  0.81253162  0.57041770  0.41592853     0.11900
H1479       H  0.79081389  0.59862928  0.36609378     0.12500
H1480       H  0.84639218  0.69399537  0.39059698     0.14400
C1481       C  0.93246404  0.60411991  0.51639541    -0.05600
C1482       C  0.95085796  0.59097150  0.54385040    -0.05500
C1483       C  0.98675149  0.59119789  0.54520788    -0.23700
C1484       C  0.00568697  0.60495731  0.51927929     0.18500
C1485       C  0.98809184  0.61846088  0.49176266     0.15700
C1486       C  0.95211868  0.61692980  0.48997278    -0.18700
C1487       C  0.00675463  0.63239525  0.46582204    -0.20600
C1488       C  0.04246965  0.63241924  0.46673096    -0.13100
C1489       C  0.06106105  0.61871034  0.49384161     0.03600
C1490       C  0.04181599  0.60455489  0.51994035    -0.25300
H1491       H  0.93723956  0.58001981  0.56433911     0.08600
H1492       H  0.99969755  0.58045999  0.56658447     0.12200
H1493       H  0.94008284  0.62484576  0.46722113     0.12200
H1494       H  0.99367529  0.64264225  0.44429407     0.11900
H1495       H  0.05505826  0.64149676  0.44499732     0.12500
H1496       H  0.05514537  0.59264139  0.54055784     0.14400
C1497       C  0.11057856  0.37758220  0.46542849    -0.05600
C1498       C  0.10291446  0.34113967  0.46150612    -0.05500
C1499       C  0.11510886  0.32143806  0.43502224    -0.23700
C1500       C  0.13600511  0.33723035  0.41161372     0.18500
C1501       C  0.14445096  0.37339261  0.41517691     0.15700
C1502       C  0.13211262  0.39305211  0.44184871    -0.18700
C1503       C  0.16601417  0.38930555  0.39242936    -0.20600
C1504       C  0.17982712  0.36953853  0.36700043    -0.13100
C1505       C  0.17208436  0.33344212  0.36316217     0.03600
C1506       C  0.14954253  0.31742854  0.38535067    -0.25300
H1507       H  0.08746538  0.32768912  0.47939208     0.08600
H1508       H  0.10857656  0.29364617  0.43317511     0.12200
H1509       H  0.14059612  0.42011214  0.44438886     0.12200
H1510       H  0.17279017  0.41700885  0.39465745     0.11900
H1511       H  0.19704101  0.38251197  0.35031158     0.12500
H1512       H  0.14375023  0.28949522  0.38300450     0.14400
C1513       C  0.18686639  0.31295044  0.61147628    -0.05600
C1514       C  0.20938697  0.32628327  0.58807386    -0.05500
C1515       C  0.19677461  0.34530912  0.56104904    -0.23700
C1516       C  0.16144088  0.35057733  0.55679107     0.18500
C1517       C  0.13885353  0.33584906  0.57967832     0.15700
C1518       C  0.15164418  0.31761866  0.60694325    -0.18700
C1519       C  0.10370403  0.33934868  0.57499616    -0.20600
C1520       C  0.09076091  0.35812444  0.54842185    -0.13100
C1521       C  0.11260079  0.37567129  0.52625966     0.03600
C1522       C  0.14823926  0.37036789  0.53031083    -0.25300
H1523       H  0.23670930  0.32299367  0.59129432     0.08600
H1524       H  0.21461092  0.35612908  0.54369183     0.12200
H1525       H  0.13414881  0.30698077  0.62477264     0.12200
H1526       H  0.08603974  0.32717917  0.59178754     0.11900
H1527       H  0.06330627  0.35810214  0.54561440     0.12500
H1528       H  0.16560304  0.38207646  0.51297970     0.14400
C1529       C  0.11082257  0.43712341  0.49828738    -0.05600
C1530       C  0.12784211  0.45196357  0.52611640    -0.05500
C1531       C  0.13112989  0.48867485  0.53025753    -0.23700
C1532       C  0.11770350  0.51200024  0.50682159     0.18500
C1533       C  0.10227461  0.49783461  0.47814868     0.15700
C1534       C  0.09879015  0.46099089  0.47416354    -0.18700
C1535       C  0.08892849  0.52073885  0.45451598    -0.20600
C1536       C  0.08968881  0.55717473  0.45965958    -0.13100
C1537       C  0.10409180  0.57245391  0.48850149     0.03600
C1538       C  0.11822658  0.54905406  0.51212092    -0.25300
H1539       H  0.13666245  0.43575645  0.54618100     0.08600
H1540       H  0.14313428  0.49882828  0.55251007     0.12200
H1541       H  0.08486023  0.45071695  0.45296294     0.12200
H1542       H  0.07710451  0.51044469  0.43223011     0.11900
H1543       H  0.07843716  0.57380831  0.44091760     0.12500
H1544       H  0.12842406  0.55909230  0.53512243     0.14400
C1545       C  0.81485521  0.30734335  0.63045371    -0.05600
C1546       C  0.79059293  0.31824383  0.60682928    -0.05500
C1547       C  0.80039920  0.33833891  0.57974477    -0.23700
C1548       C  0.83493078  0.34676339  0.57489932     0.18500
C1549       C  0.85971119  0.33441427  0.59754565     0.15700
C1550       C  0.84952530  0.31575196  0.62568574    -0.18700
C1551       C  0.89430315  0.34001425  0.59113389    -0.20600
C1552       C  0.90435430  0.35642223  0.56214599    -0.13100
C1553       C  0.88013551  0.37038674  0.53945490     0.03600
C1554       C  0.84513888  0.36612920  0.54717288    -0.25300
H1555       H  0.76375516  0.31216262  0.60989346     0.08600
H1556       H  0.78097349  0.34689855  0.56234333     0.12200
H1557       H  0.86856434  0.30708039  0.64345860     0.12200
H1558       H  0.91378833  0.33009528  0.60782970     0.11900
H1559       H  0.93137603  0.35674941  0.55773495     0.12500
H1560       H  0.82576956  0.37579369  0.53022156     0.14400
C1561       C  0.86847621  0.36259568  0.47972628    -0.05600
C1562       C  0.87142333  0.32536708  0.47974260    -0.05500
C1563       C  0.85518663  0.30451996  0.45568660    -0.23700
C1564       C  0.83545186  0.32024874  0.43087535     0.18500
C1565       C  0.83025111  0.35711625  0.43170072     0.15700
C1566       C  0.84544625  0.37767408  0.45673300    -0.18700
C1567       C  0.81117179  0.37320201  0.40657664    -0.20600
C1568       C  0.79893467  0.35326142  0.38001004    -0.13100
C1569       C  0.80441249  0.31670322  0.37864034     0.03600
C1570       C  0.82183218  0.30005387  0.40464467    -0.25300
H1571       H  0.88771132  0.31254054  0.49774784     0.08600
H1572       H  0.85914303  0.27623484  0.45581107     0.12200
H1573       H  0.83985322  0.40554552  0.45723487     0.12200
H1574       H  0.80693998  0.40144746  0.40676603     0.11900
H1575       H  0.78553426  0.36649126  0.36016629     0.12500
H1576       H  0.82644847  0.27188559  0.40349300     0.14400
C1577       C  0.88516628  0.56010775  0.51756944    -0.05600
C1578       C  0.87305991  0.54434853  0.54665697    -0.05500
C1579       C  0.86911784  0.50767184  0.54949169    -0.23700
C1580       C  0.87708552  0.48519689  0.52346379     0.18500
C1581       C  0.88919424  0.50018821  0.49424105     0.15700
C1582       C  0.89432796  0.53700402  0.49192698    -0.18700
C1583       C  0.89677217  0.47804077  0.46796615    -0.20600
C1584       C  0.89417720  0.44145337  0.47114827    -0.13100
C1585       C  0.88404822  0.42536564  0.50078726     0.03600
C1586       C  0.87460069  0.44803098  0.52670240    -0.25300
H1587       H  0.86771884  0.56000985  0.56809907     0.08600
H1588       H  0.86030157  0.49685062  0.57239111     0.12200
H1589       H  0.90523052  0.54788667  0.46989819     0.12200
H1590       H  0.90570082  0.48895354  0.44514110     0.11900
H1591       H  0.90190090  0.42528437  0.45067956     0.12500
H1592       H  0.86707978  0.43712326  0.54995289     0.14400
C1593       C  0.92906480  0.38100241  0.49835379    -0.05600
C1594       C  0.94218892  0.36264953  0.47101701    -0.05500
C1595       C  0.97709651  0.36324004  0.46417483    -0.23700
C1596       C  0.00010717  0.38243021  0.48405947     0.18500
C1597       C  0.98759146  0.40132896  0.51104208     0.15700
C1598       C  0.95258912  0.40098081  0.51762718    -0.18700
C1599       C  0.01023705  0.42042319  0.53116035    -0.20600
C1600       C  0.04515210  0.41962130  0.52545736    -0.13100
C1601       C  0.05881303  0.40014609  0.49905084     0.03600
C1602       C  0.03535871  0.38287734  0.47749507    -0.25300
H1603       H  0.92583302  0.34875227  0.45372033     0.08600
H1604       H  0.98604406  0.34884272  0.44305166     0.12200
H1605       H  0.94334250  0.41651451  0.53795186     0.12200
H1606       H  0.00107306  0.43522595  0.55195819     0.11900
H1607       H  0.06187238  0.43327158  0.54275609     0.12500
H1608       H  0.04398874  0.36906432  0.45606198     0.14400
C1609       C  0.83585974  0.69690345  0.63977851    -0.05600
C1610       C  0.87169034  0.69933958  0.63870373    -0.05500
C1611       C  0.88993319  0.68217613  0.61416269    -0.23700
C1612       C  0.87285885  0.66128417  0.59051674     0.18500
C1613       C  0.83684594  0.65825406  0.59151583     0.15700
C1614       C  0.81848645  0.67643222  0.61583042    -0.18700
C1615       C  0.81986567  0.63689368  0.56831038    -0.20600
C1616       C  0.83819693  0.61877735  0.54451463    -0.13100
C1617       C  0.87426848  0.62109965  0.54296197     0.03600
C1618       C  0.89125102  0.64328825  0.56612057    -0.25300
H1619       H  0.88565389  0.71468848  0.65701615     0.08600
H1620       H  0.91751277  0.68482736  0.61400823     0.12200
H1621       H  0.79092101  0.67378186  0.61675873     0.12200
H1622       H  0.79230301  0.63407133  0.56857147     0.11900
H1623       H  0.82405773  0.60248454  0.52706001     0.12500
H1624       H  0.91860892  0.64710841  0.56528813     0.14400
C1625       C  0.70008276  0.64772732  0.85695563    -0.05600
C1626       C  0.72200456  0.61943595  0.86323257    -0.05500
C1627       C  0.70880260  0.58725760  0.87375353    -0.23700
C1628       C  0.67359591  0.58335854  0.87851388     0.18500
C1629       C  0.65191288  0.61272521  0.87504488     0.15700
C1630       C  0.66520457  0.64476728  0.86374489    -0.18700
C1631       C  0.61745431  0.60942292  0.88293296    -0.20600
C1632       C  0.60448779  0.57699829  0.89334081    -0.13100
C1633       C  0.62458251  0.54597423  0.89267101     0.03600
C1634       C  0.65985799  0.55048751  0.88662815    -0.25300
H1635       H  0.74888405  0.62141988  0.85752752     0.08600
H1636       H  0.72590314  0.56511702  0.87699616     0.12200
H1637       H  0.64833426  0.66677758  0.85872974     0.12200
H1638       H  0.60089579  0.63223861  0.88244682     0.11900
H1639       H  0.57932438  0.57703796  0.90375851     0.12500
H1640       H  0.67722846  0.52857375  0.88956971     0.14400
C1641       C  0.64770347  0.82642720  0.66532854    -0.05600
C1642       C  0.64799909  0.81996116  0.63134402    -0.05500
C1643       C  0.61916107  0.82715121  0.61159693    -0.23700
C1644       C  0.58944244  0.84096829  0.62541554     0.18500
C1645       C  0.58902783  0.84737215  0.65948944     0.15700
C1646       C  0.61792567  0.84028312  0.67904367    -0.18700
C1647       C  0.55969619  0.86083329  0.67370981    -0.20600
C1648       C  0.53166600  0.86990336  0.65423193    -0.13100
C1649       C  0.53190591  0.86598443  0.61973253     0.03600
C1650       C  0.56052163  0.84929661  0.60579210    -0.25300
H1651       H  0.67035176  0.80888845  0.62004121     0.08600
H1652       H  0.62014619  0.82197005  0.58552503     0.12200
H1653       H  0.61689748  0.84514959  0.70518425     0.12200
H1654       H  0.55879480  0.86550208  0.69987827     0.11900
H1655       H  0.51022751  0.88223462  0.66603908     0.12500
H1656       H  0.56124457  0.84377479  0.57987930     0.14400
C1657       C  0.67700297  0.81616249  0.88305396    -0.05600
C1658       C  0.66140722  0.79244116  0.90468860    -0.05500
C1659       C  0.64474137  0.80474334  0.93267724    -0.23700
C1660       C  0.64434894  0.84098361  0.94021943     0.18500
C1661       C  0.66094310  0.86478889  0.91911229     0.15700
C1662       C  0.67644149  0.85242114  0.89036840    -0.18700
C1663       C  0.66282643  0.90048052  0.92763050    -0.20600
C1664       C  0.64820124  0.91272209  0.95643027    -0.13100
C1665       C  0.62905688  0.89017935  0.97703795     0.03600
C1666       C  0.62827927  0.85376630  0.96868727    -0.25300
H1667       H  0.66182825  0.76434009  0.89970324     0.08600
H1668       H  0.63258501  0.78585540  0.94865576     0.12200
H1669       H  0.68908094  0.87084622  0.87423336     0.12200
H1670       H  0.67657106  0.91896056  0.91242180     0.11900
H1671       H  0.65305280  0.94006845  0.96240231     0.12500
H1672       H  0.61545150  0.83534597  0.98466186     0.14400
C1673       C  0.80934939  0.88058141  0.66322051    -0.05600
C1674       C  0.79616602  0.91365939  0.67159584    -0.05500
C1675       C  0.80724087  0.94409100  0.65589291    -0.23700
C1676       C  0.83231793  0.94203569  0.63194779     0.18500
C1677       C  0.84530703  0.90880656  0.62277611     0.15700
C1678       C  0.83348237  0.87799743  0.63831203    -0.18700
C1679       C  0.87020780  0.90719096  0.59865372    -0.20600
C1680       C  0.88276109  0.93818331  0.58453458    -0.13100
C1681       C  0.87163522  0.97191559  0.59473238     0.03600
C1682       C  0.84489940  0.97291948  0.61761458    -0.25300
H1683       H  0.77775870  0.91597479  0.69099009     0.08600
H1684       H  0.79692968  0.96934806  0.66319998     0.12200
H1685       H  0.84404636  0.85248003  0.63217866     0.12200
H1686       H  0.88018503  0.88197966  0.59083563     0.11900
H1687       H  0.90188914  0.93588955  0.56582320     0.12500
H1688       H  0.83323269  0.99747147  0.62464484     0.14400
C1689       C  0.86678365  0.69475460  0.85434470    -0.05600
C1690       C  0.88607141  0.71746802  0.87485968    -0.05500
C1691       C  0.91563978  0.70523657  0.89116582    -0.23700
C1692       C  0.92592676  0.66992732  0.88764383     0.18500
C1693       C  0.90533244  0.64685610  0.86832473     0.15700
C1694       C  0.87631055  0.65938134  0.85163064    -0.18700
C1695       C  0.91468970  0.61178333  0.86472020    -0.20600
C1696       C  0.94434199  0.59941751  0.87961371    -0.13100
C1697       C  0.96591039  0.62140079  0.89954221     0.03600
C1698       C  0.95658138  0.65736487  0.90234337    -0.25300
H1699       H  0.87916668  0.74500802  0.87702814     0.08600
H1700       H  0.93073967  0.72350067  0.90600060     0.12200
H1701       H  0.86145558  0.64176288  0.83582356     0.12200
H1702       H  0.89945958  0.59389687  0.84955406     0.11900
H1703       H  0.95067644  0.57244517  0.87377851     0.12500
H1704       H  0.97319712  0.67547694  0.91580494     0.14400
loop_ 
_geom_bond_atom_site_label_1 
_geom_bond_atom_site_label_2 
_geom_bond_distance 
_geom_bond_site_symmetry_2 
_ccdc_geom_bond_type 
Zr1           O2   2.441       .  S
Zr1           O3   2.446       .  S
Zr1           O4   2.452       .  S
Zr1           O7   2.475       .  S
Zr1           O9   2.394       .  S
Zr1          O10   2.387       .  S
Zr1          O11   2.419       .  S
Zr1          O12   2.401       .  S
O2           H58   0.990       .  S
O2           H66   0.990       .  S
O3           C23   1.285       .  A
O4           C25   1.288       .  A
O5          Zr15   2.427       .  S
O5           C24   1.283       .  A
O6          Zr14   2.432       .  S
O6           C25   1.286       .  A
O7           C24   1.292       .  A
O8          Zr16   2.406       .  S
O8           C23   1.278       .  A
O9          Zr14   2.400       .  S
O9          Zr16   2.373       .  S
O10         Zr15   2.397       .  S
O10         Zr16   2.381       .  S
O10          H45   0.964       .  S
O11         Zr14   2.412       .  S
O11         Zr31   2.375       .  S
O11          H48   0.964       .  S
O12         Zr15   2.392       .  S
O12         Zr31   2.397       .  S
Zr13         O38   2.441       .  S
Zr13         O32   2.429       .  S
Zr13         O40   2.448       .  S
Zr13         O28   2.442       .  S
Zr13         O19   2.400       .  S
Zr13         O20   2.406       .  S
Zr13         O21   2.382       .  S
Zr13         O22   2.391       .  S
Zr14         O33   2.438       .  S
Zr14         O26   2.437       .  S
Zr14         O27   2.460       .  S
Zr14         O20   2.398       .  S
Zr14         O21   2.386       .  S
Zr15         O17   2.436       .  S
Zr15         O39   2.437       .  S
Zr15         O41   2.424       .  S
Zr15         O19   2.398       .  S
Zr15         O22   2.389       .  S
Zr16         O42   2.435       .  S
Zr16         O43   2.435       .  S
Zr16         O18   2.438       .  S
Zr16         O19   2.392       .  S
Zr16         O20   2.395       .  S
O17          H54   0.990       .  S
O18          H49   0.990       .  S
O18          H63   0.990       .  S
O20          H46   0.965       .  S
O21         Zr31   2.372       .  S
O22         Zr31   2.381       .  S
O22          H47   0.966       .  S
C23        C1673   1.467       .  S
C24        C1609   1.490       .  S
C25        C1641   1.489       .  S
O26          H62   0.990       .  S
O27          C29   1.289       .  A
O28          C29   1.286       .  A
C29        C1657   1.488       .  S
O30         Zr31   2.437       .  S
O30          H59   0.990       .  S
Zr31         O34   2.437       .  S
Zr31         O35   2.437       .  S
Zr31         O36   2.402       .  S
O32          C37   1.282       .  A
O33          H50   0.990       .  S
O33          H65   0.990       .  S
O34          H51   0.990       .  S
O35          H55   0.990       .  S
O35          H64   0.990       .  S
O36          C37   1.278       .  A
C37        C1625   1.453       .  S
O38          H57   0.991       .  S
O38          H61   0.990       .  S
O39          H53   0.990       .  S
O39          H60   0.990       .  S
O40          C44   1.285       .  A
O41          C44   1.283       .  A
O42          H52   0.990       .  S
O43          H56   0.990       .  S
C44        C1689   1.475       .  S
C67        C1553   1.570       .  S
C67        C1561   1.559       .  S
C67        C1585   1.563       .  S
C67        C1593   1.563       .  S
C68        C1497   1.568       .  S
C68        C1521   1.561       .  S
C68        C1529   1.569       .  S
C68        C1601   1.561       .  S
C69        C1465   1.564       .  S
C69        C1481   1.570       .  S
C69        C1577   1.567       .  S
C69        C1617   1.562       .  S
C70        C1433   1.561       .  S
C70        C1457   1.565       .  S
C70        C1489   1.565       .  S
C70        C1537   1.566       .  S
C71        C1369   1.552       .  S
C71        C1393   1.560       .  S
C71        C1401   1.560       .  S
C71        C1417   1.558       .  S
C72        C1321   1.554       .  S
C72        C1337   1.555       .  S
C72        C1361   1.552       .  S
C72        C1425   1.558       .  S
C73        C1289   1.553       .  S
C73        C1305   1.572       .  S
C73        C1409   1.576       .  S
C73        C1633   1.555       .  S
C74        C1265   1.555       .  S
C74        C1281   1.546       .  S
C74        C1313   1.558       .  S
C74        C1353   1.551       .  S
C75        C1193   1.560       .  S
C75        C1209   1.557       .  S
C75        C1225   1.556       .  S
C75        C1241   1.556       .  S
C76        C1145   1.567       .  S
C76        C1161   1.562       .  S
C76        C1177   1.569       .  S
C76        C1249   1.556       .  S
C77        C1113   1.567       .  S
C77        C1129   1.573       .  S
C77        C1233   1.566       .  S
C77        C1649   1.557       .  S
C78        C1081   1.591       .  S
C78        C1105   1.559       .  S
C78        C1137   1.581       .  S
C78        C1185   1.585       .  S
Zr79         O80   2.442       .  S
Zr79         O81   2.455       .  S
Zr79         O82   2.444       .  S
Zr79         O85   2.442       .  S
Zr79         O87   2.383       .  S
Zr79         O88   2.386       .  S
Zr79         O89   2.412       .  S
Zr79         O90   2.406       .  S
O80         H136   0.990       .  S
O80         H144   0.991       .  S
O81         C101   1.287       .  A
O82         C103   1.285       .  A
O83         Zr93   2.422       .  S
O83         C102   1.283       .  A
O84         Zr92   2.433       .  S
O84         C103   1.284       .  A
O85         C102   1.285       .  A
O86         Zr94   2.415       .  S
O86         C101   1.282       .  A
O87         Zr92   2.396       .  S
O87         Zr94   2.379       .  S
O88         Zr93   2.394       .  S
O88         Zr94   2.378       .  S
O88         H123   0.964       .  S
O89         Zr92   2.400       .  S
O89        Zr109   2.394       .  S
O89         H126   0.965       .  S
O90         Zr93   2.393       .  S
O90        Zr109   2.394       .  S
Zr91        O116   2.441       .  S
Zr91        O110   2.441       .  S
Zr91        O118   2.437       .  S
Zr91        O106   2.445       .  S
Zr91         O97   2.403       .  S
Zr91         O98   2.414       .  S
Zr91         O99   2.382       .  S
Zr91        O100   2.385       .  S
Zr92        O111   2.436       .  S
Zr92        O104   2.437       .  S
Zr92        O105   2.422       .  S
Zr92         O98   2.403       .  S
Zr92         O99   2.399       .  S
Zr93         O95   2.435       .  S
Zr93        O117   2.442       .  S
Zr93        O119   2.431       .  S
Zr93         O97   2.387       .  S
Zr93        O100   2.397       .  S
Zr94        O120   2.436       .  S
Zr94        O121   2.436       .  S
Zr94         O96   2.438       .  S
Zr94         O97   2.387       .  S
Zr94         O98   2.397       .  S
O95         H132   0.990       .  S
O96         H127   0.990       .  S
O96         H141   0.990       .  S
O98         H124   0.964       .  S
O99        Zr109   2.378       .  S
O100       Zr109   2.379       .  S
O100        H125   0.965       .  S
C101       C1073   1.490       .  S
C102       C1513   1.474       .  S
C103       C1097   1.482       .  S
O104        H140   0.990       .  S
O105        C107   1.282       .  A
O106        C107   1.285       .  A
C107       C1033   1.470       .  S
O108       Zr109   2.436       .  S
O108        H137   0.990       .  S
Zr109       O112   2.437       .  S
Zr109       O113   2.436       .  S
Zr109       O114   2.416       .  S
O110        C115   1.283       .  A
O111        H128   0.990       .  S
O111        H143   0.990       .  S
O112        H129   0.990       .  S
O113        H133   0.990       .  S
O113        H142   0.990       .  S
O114        C115   1.280       .  A
C115       C1385   1.477       .  S
O116        H135   0.990       .  S
O116        H139   0.990       .  S
O117        H131   0.990       .  S
O117        H138   0.990       .  S
O118        C122   1.284       .  A
O119        C122   1.284       .  A
O120        H130   0.990       .  S
O121        H134   0.990       .  S
C122       C1057   1.471       .  S
Zr145       O146   2.441       .  S
Zr145       O147   2.468       .  S
Zr145       O148   2.478       .  S
Zr145       O151   2.466       .  S
Zr145       O153   2.390       .  S
Zr145       O154   2.389       .  S
Zr145       O155   2.423       .  S
Zr145       O156   2.407       .  S
O146        H202   0.990       .  S
O146        H210   0.990       .  S
O147        C167   1.288       .  A
O148        C169   1.291       .  A
O149       Zr159   2.411       .  S
O149        C168   1.281       .  A
O150       Zr158   2.396       .  S
O150        C169   1.276       .  A
O151        C168   1.292       .  A
O152       Zr160   2.410       .  S
O152        C167   1.280       .  A
O153       Zr158   2.390       .  S
O153       Zr160   2.375       .  S
O154       Zr159   2.393       .  S
O154       Zr160   2.384       .  S
O154        H189   0.965       .  S
O155       Zr158   2.404       .  S
O155       Zr175   2.402       .  S
O155        H192   0.966       .  S
O156       Zr159   2.386       .  S
O156       Zr175   2.393       .  S
Zr157       O182   2.439       .  S
Zr157       O176   2.452       .  S
Zr157       O184   2.464       .  S
Zr157       O172   2.456       .  S
Zr157       O163   2.400       .  S
Zr157       O164   2.421       .  S
Zr157       O165   2.384       .  S
Zr157       O166   2.390       .  S
Zr158       O177   2.440       .  S
Zr158       O170   2.437       .  S
Zr158       O171   2.408       .  S
Zr158       O164   2.395       .  S
Zr158       O165   2.387       .  S
Zr159       O161   2.436       .  S
Zr159       O183   2.437       .  S
Zr159       O185   2.408       .  S
Zr159       O163   2.387       .  S
Zr159       O166   2.400       .  S
Zr160       O186   2.435       .  S
Zr160       O187   2.435       .  S
Zr160       O162   2.437       .  S
Zr160       O163   2.390       .  S
Zr160       O164   2.395       .  S
O161        H198   0.990       .  S
O162        H193   0.990       .  S
O162        H207   0.989       .  S
O164        H190   0.966       .  S
O165       Zr175   2.364       .  S
O166       Zr175   2.385       .  S
O166        H191   0.968       .  S
C167       C1449   1.484       .  S
C168        C993   1.489       .  S
C169       C1025   1.475       .  S
O170        H206   0.990       .  S
O171        C173   1.276       .  A
O172        C173   1.286       .  A
C173       C1345   1.483       .  S
O174       Zr175   2.439       .  S
O174        H203   0.990       .  S
Zr175       O178   2.439       .  S
Zr175       O179   2.438       .  S
Zr175       O180   2.428       .  S
O176        C181   1.287       .  A
O177        H194   0.990       .  S
O177        H209   0.990       .  S
O178        H195   0.990       .  S
O179        H199   0.990       .  S
O179        H208   0.990       .  S
O180        C181   1.284       .  A
C181       C1009   1.495       .  S
O182        H201   0.990       .  S
O182        H205   0.990       .  S
O183        H197   0.990       .  S
O183        H204   0.990       .  S
O184        C188   1.290       .  A
O185        C188   1.281       .  A
O186        H196   0.990       .  S
O187        H200   0.990       .  S
C188       C1217   1.480       .  S
Zr211       O212   2.441       .  S
Zr211       O213   2.431       .  S
Zr211       O214   2.464       .  S
Zr211       O217   2.451       .  S
Zr211       O219   2.391       .  S
Zr211       O220   2.393       .  S
Zr211       O221   2.412       .  S
Zr211       O222   2.400       .  S
O212        H268   0.990       .  S
O212        H276   0.990       .  S
O213        C233   1.281       .  A
O214        C235   1.288       .  A
O215       Zr225   2.420       .  S
O215        C234   1.282       .  A
O216       Zr224   2.396       .  S
O216        C235   1.280       .  A
O217        C234   1.286       .  A
O218       Zr226   2.412       .  S
O218        C233   1.280       .  A
O219       Zr224   2.397       .  S
O219       Zr226   2.381       .  S
O220       Zr225   2.391       .  S
O220       Zr226   2.380       .  S
O220        H255   0.966       .  S
O221       Zr224   2.405       .  S
O221       Zr241   2.370       .  S
O221        H258   0.964       .  S
O222       Zr225   2.387       .  S
O222       Zr241   2.380       .  S
Zr223       O248   2.441       .  S
Zr223       O242   2.439       .  S
Zr223       O250   2.418       .  S
Zr223       O238   2.441       .  S
Zr223       O229   2.411       .  S
Zr223       O230   2.401       .  S
Zr223       O231   2.380       .  S
Zr223       O232   2.386       .  S
Zr224       O243   2.438       .  S
Zr224       O236   2.437       .  S
Zr224       O237   2.430       .  S
Zr224       O230   2.381       .  S
Zr224       O231   2.389       .  S
Zr225       O227   2.436       .  S
Zr225       O249   2.438       .  S
Zr225       O251   2.430       .  S
Zr225       O229   2.391       .  S
Zr225       O232   2.384       .  S
Zr226       O252   2.435       .  S
Zr226       O253   2.436       .  S
Zr226       O228   2.438       .  S
Zr226       O229   2.398       .  S
Zr226       O230   2.389       .  S
O227        H264   0.990       .  S
O228        H259   0.990       .  S
O228        H273   0.990       .  S
O230        H256   0.966       .  S
O231       Zr241   2.382       .  S
O232       Zr241   2.370       .  S
O232        H257   0.966       .  S
C233        C977   1.460       .  S
C234       C1569   1.475       .  S
C235       C1169   1.471       .  S
O236        H272   0.990       .  S
O237        C239   1.282       .  A
O238        C239   1.285       .  A
C239        C953   1.472       .  S
O240       Zr241   2.434       .  S
O240        H269   0.990       .  S
Zr241       O244   2.435       .  S
Zr241       O245   2.438       .  S
Zr241       O246   2.393       .  S
O242        C247   1.284       .  A
O243        H260   0.990       .  S
O243        H275   0.990       .  S
O244        H261   0.990       .  S
O245        H265   0.990       .  S
O245        H274   0.990       .  S
O246        C247   1.277       .  A
C247       C1273   1.460       .  S
O248        H267   0.990       .  S
O248        H271   0.990       .  S
O249        H263   0.990       .  S
O249        H270   0.990       .  S
O250        C254   1.281       .  A
O251        C254   1.286       .  A
O252        H262   0.990       .  S
O253        H266   0.990       .  S
C254        C937   1.480       .  S
Zr277       O278   2.440       .  S
Zr277       O279   2.437       .  S
Zr277       O280   2.480       .  S
Zr277       O283   2.467       .  S
Zr277       O285   2.389       .  S
Zr277       O286   2.396       .  S
Zr277       O287   2.408       .  S
Zr277       O288   2.405       .  S
O278        H334   0.990       .  S
O278        H342   0.990       .  S
O279        C299   1.285       .  A
O280        C301   1.293       .  A
O281       Zr291   2.415       .  S
O281        C300   1.281       .  A
O282       Zr290   2.448       .  S
O282        C301   1.289       .  A
O283        C300   1.291       .  A
O284       Zr292   2.417       .  S
O284        C299   1.282       .  A
O285       Zr290   2.401       .  S
O285       Zr292   2.384       .  S
O286       Zr291   2.396       .  S
O286       Zr292   2.369       .  S
O286        H321   0.966       .  S
O287       Zr290   2.402       .  S
O287       Zr307   2.385       .  S
O287        H324   0.965       .  S
O288       Zr291   2.392       .  S
O288       Zr307   2.380       .  S
Zr289       O314   2.440       .  S
Zr289       O308   2.457       .  S
Zr289       O316   2.472       .  S
Zr289       O304   2.464       .  S
Zr289       O295   2.413       .  S
Zr289       O296   2.420       .  S
Zr289       O297   2.389       .  S
Zr289       O298   2.387       .  S
Zr290       O309   2.435       .  S
Zr290       O302   2.437       .  S
Zr290       O303   2.450       .  S
Zr290       O296   2.407       .  S
Zr290       O297   2.396       .  S
Zr291       O293   2.437       .  S
Zr291       O315   2.438       .  S
Zr291       O317   2.431       .  S
Zr291       O295   2.389       .  S
Zr291       O298   2.391       .  S
Zr292       O318   2.436       .  S
Zr292       O319   2.435       .  S
Zr292       O294   2.437       .  S
Zr292       O295   2.396       .  S
Zr292       O296   2.387       .  S
O293        H330   0.990       .  S
O294        H325   0.990       .  S
O294        H339   0.990       .  S
O296        H322   0.964       .  S
O297       Zr307   2.382       .  S
O298       Zr307   2.375       .  S
O298        H323   0.966       .  S
C299       C1297   1.486       .  S
C300        C913   1.474       .  S
C301        C889   1.508       .  S
O302        H338   0.990       .  S
O303        C305   1.288       .  A
O304        C305   1.290       .  A
C305       C1545   1.490       .  S
O306       Zr307   2.435       .  S
O306        H335   0.990       .  S
Zr307       O310   2.436       .  S
Zr307       O311   2.439       .  S
Zr307       O312   2.393       .  S
O308        C313   1.287       .  A
O309        H326   0.990       .  S
O309        H341   0.990       .  S
O310        H327   0.990       .  S
O311        H331   0.990       .  S
O311        H340   0.990       .  S
O312        C313   1.278       .  A
C313        C921   1.487       .  S
O314        H333   0.990       .  S
O314        H337   0.990       .  S
O315        H329   0.990       .  S
O315        H336   0.990       .  S
O316        C320   1.291       .  A
O317        C320   1.285       .  A
O318        H328   0.990       .  S
O319        H332   0.990       .  S
C320       C1089   1.496       .  S
C343        C849   1.560       .  S
C343        C865   1.563       .  S
C343        C873   1.565       .  S
C343       C1665   1.570   1_554  S
C344        C833   1.555       .  S
C344        C881   1.554   1_554  S
C344        C905   1.560   1_554  S
C344        C961   1.555       .  S
C345        C801   1.553       .  S
C345        C809   1.561       .  S
C345        C857   1.561       .  S
C345       C1001   1.560   1_556  S
C346        C785   1.558   1_556  S
C346        C817   1.563       .  S
C346        C825   1.561       .  S
C346       C1041   1.553       .  S
Zr347       O348   2.441       .  S
Zr347       O349   2.452       .  S
Zr347       O350   2.462       .  S
Zr347       O353   2.457       .  S
Zr347       O355   2.384       .  S
Zr347       O356   2.388       .  S
Zr347       O357   2.414       .  S
Zr347       O358   2.406       .  S
O348        H404   0.990       .  S
O348        H412   0.990       .  S
O349        C369   1.287       .  A
O350        C371   1.290       .  A
O351       Zr361   2.413       .  S
O351        C370   1.280       .  A
O352       Zr360   2.452       .  S
O352        C371   1.288       .  A
O353        C370   1.287       .  A
O354       Zr362   2.395       .  S
O354        C369   1.278       .  A
O355       Zr360   2.392       .  S
O355       Zr362   2.379       .  S
O356       Zr361   2.385       .  S
O356       Zr362   2.382       .  S
O356        H391   0.965       .  S
O357       Zr360   2.398       .  S
O357       Zr377   2.388       .  S
O357        H394   0.965       .  S
O358       Zr361   2.390       .  S
O358       Zr377   2.389       .  S
Zr359       O384   2.439       .  S
Zr359       O378   2.452       .  S
Zr359       O386   2.487       .  S
Zr359       O374   2.477       .  S
Zr359       O365   2.408       .  S
Zr359       O366   2.418       .  S
Zr359       O367   2.391       .  S
Zr359       O368   2.391       .  S
Zr360       O379   2.436       .  S
Zr360       O372   2.435       .  S
Zr360       O373   2.430       .  S
Zr360       O366   2.407       .  S
Zr360       O367   2.398       .  S
Zr361       O363   2.437       .  S
Zr361       O385   2.440       .  S
Zr361       O387   2.412       .  S
Zr361       O365   2.391       .  S
Zr361       O368   2.390       .  S
Zr362       O388   2.435       .  S
Zr362       O389   2.437       .  S
Zr362       O364   2.439       .  S
Zr362       O365   2.397       .  S
Zr362       O366   2.385       .  S
O363        H400   0.991       .  S
O364        H395   0.990       .  S
O364        H409   0.990       .  S
O366        H392   0.965       .  S
O367       Zr377   2.365       .  S
O368       Zr377   2.380       .  S
O368        H393   0.966       .  S
C369       C1377   1.482       .  S
C370        C793   1.471       .  S
C371        C769   1.502       .  S
O372        H408   0.990       .  S
O373        C375   1.285       .  A
O374        C375   1.293       .  A
C375       C1441   1.484       .  S
O376       Zr377   2.436       .  S
O376        H405   0.990       .  S
Zr377       O380   2.434       .  S
Zr377       O381   2.437       .  S
Zr377       O382   2.405       .  S
O378        C383   1.287       .  A
O379        H396   0.990       .  S
O379        H411   0.990       .  S
O380        H397   0.990       .  S
O381        H401   0.990       .  S
O381        H410   0.990       .  S
O382        C383   1.279       .  A
C383        C753   1.472       .  S
O384        H403   0.990       .  S
O384        H407   0.990       .  S
O385        H399   0.990       .  S
O385        H406   0.990       .  S
O386        C390   1.294       .  A
O387        C390   1.279       .  A
O388        H398   0.990       .  S
O389        H402   0.990       .  S
C390       C1121   1.486       .  S
C413        C713   1.557       .  S
C413        C729   1.569       .  S
C413        C929   1.555       .  S
C413       C1681   1.560   1_545  S
C414        C697   1.578       .  S
C414        C737   1.581       .  S
C414        C745   1.567       .  S
C414       C1065   1.555   1_565  S
C415        C665   1.546       .  S
C415        C689   1.554       .  S
C415        C721   1.559       .  S
C415        C969   1.548   1_565  S
C416        C649   1.551   1_565  S
C416        C681   1.549       .  S
C416        C705   1.558   1_565  S
C416        C985   1.560       .  S
Zr417       O418   2.441       .  S
Zr417       O419   2.459       .  S
Zr417       O420   2.472       .  S
Zr417       O423   2.464       .  S
Zr417       O425   2.389       .  S
Zr417       O426   2.390       .  S
Zr417       O427   2.418       .  S
Zr417       O428   2.400       .  S
O418        H474   0.990       .  S
O418        H482   0.991       .  S
O419        C439   1.289       .  A
O420        C441   1.289       .  A
O421       Zr431   2.394       .  S
O421        C440   1.278       .  A
O422       Zr430   2.398       .  S
O422        C441   1.278       .  A
O423        C440   1.289       .  A
O424       Zr432   2.422       .  S
O424        C439   1.281       .  A
O425       Zr430   2.397       .  S
O425       Zr432   2.383       .  S
O426       Zr431   2.389       .  S
O426       Zr432   2.379       .  S
O426        H461   0.966       .  S
O427       Zr430   2.397       .  S
O427       Zr447   2.388       .  S
O427        H464   0.964       .  S
O428       Zr431   2.380       .  S
O428       Zr447   2.376       .  S
Zr429       O454   2.440       .  S
Zr429       O448   2.473       .  S
Zr429       O456   2.472       .  S
Zr429       O444   2.446       .  S
Zr429       O435   2.406       .  S
Zr429       O436   2.424       .  S
Zr429       O437   2.381       .  S
Zr429       O438   2.383       .  S
Zr430       O449   2.441       .  S
Zr430       O442   2.435       .  S
Zr430       O443   2.412       .  S
Zr430       O436   2.393       .  S
Zr430       O437   2.389       .  S
Zr431       O433   2.439       .  S
Zr431       O455   2.442       .  S
Zr431       O457   2.395       .  S
Zr431       O435   2.382       .  S
Zr431       O438   2.398       .  S
Zr432       O458   2.437       .  S
Zr432       O459   2.435       .  S
Zr432       O434   2.438       .  S
Zr432       O435   2.396       .  S
Zr432       O436   2.400       .  S
O433        H470   0.989       .  S
O434        H465   0.990       .  S
O434        H479   0.990       .  S
O436        H462   0.965       .  S
O437       Zr447   2.372       .  S
O438       Zr447   2.383       .  S
O438        H463   0.965       .  S
C439        C841   1.494       .  S
C440       C1257   1.460       .  S
C441       C1201   1.467       .  S
O442        H478   0.990       .  S
O443        C445   1.277       .  A
O444        C445   1.284       .  A
C445        C673   1.460       .  S
O446       Zr447   2.435       .  S
O446        H475   0.990       .  S
Zr447       O450   2.435       .  S
Zr447       O451   2.436       .  S
Zr447       O452   2.403       .  S
O448        C453   1.290       .  A
O449        H466   0.990       .  S
O449        H481   0.990       .  S
O450        H467   0.990       .  S
O451        H471   0.990       .  S
O451        H480   0.990       .  S
O452        C453   1.279       .  A
C453       C1473   1.484       .  S
O454        H473   0.991       .  S
O454        H477   0.990       .  S
O455        H469   0.990       .  S
O455        H476   0.990       .  S
O456        C460   1.292       .  A
O457        C460   1.278       .  A
O458        H468   0.990       .  S
O459        H472   0.990       .  S
C460        C633   1.489       .  S
C483        C601   1.557   1_455  S
C483        C617   1.563       .  S
C483        C761   1.569       .  S
C483       C1697   1.567   1_455  S
C484        C585   1.561       .  S
C484        C625   1.560   1_455  S
C484        C641   1.560   1_455  S
C484       C1017   1.556       .  S
C485        C577   1.574       .  S
C485        C609   1.556       .  S
C485        C897   1.572   1_455  S
C485       C1049   1.569       .  S
C486        C553   1.554   1_655  S
C486        C569   1.558   1_655  S
C486        C593   1.558       .  S
C486        C945   1.545       .  S
Zr487       O488   2.442       .  S
Zr487       O489   2.448       .  S
Zr487       O490   2.460       .  S
Zr487       O493   2.447       .  S
Zr487       O495   2.386       .  S
Zr487       O496   2.383       .  S
Zr487       O497   2.417       .  S
Zr487       O498   2.413       .  S
O488        H544   0.991       .  S
O488        H552   0.990       .  S
O489        C509   1.286       .  A
O490        C511   1.288       .  A
O491       Zr501   2.401       .  S
O491        C510   1.280       .  A
O492       Zr500   2.432       .  S
O492        C511   1.283       .  A
O493        C510   1.285       .  A
O494       Zr502   2.420       .  S
O494        C509   1.282       .  A
O495       Zr500   2.403       .  S
O495       Zr502   2.387       .  S
O496       Zr501   2.381       .  S
O496       Zr502   2.372       .  S
O496        H531   0.965       .  S
O497       Zr500   2.397       .  S
O497       Zr517   2.391       .  S
O497        H534   0.965       .  S
O498       Zr501   2.387       .  S
O498       Zr517   2.393       .  S
Zr499       O524   2.441       .  S
Zr499       O518   2.476       .  S
Zr499       O526   2.473       .  S
Zr499       O514   2.442       .  S
Zr499       O505   2.408       .  S
Zr499       O506   2.424       .  S
Zr499       O507   2.388       .  S
Zr499       O508   2.386       .  S
Zr500       O519   2.438       .  S
Zr500       O512   2.435       .  S
Zr500       O513   2.424       .  S
Zr500       O506   2.394       .  S
Zr500       O507   2.397       .  S
Zr501       O503   2.435       .  S
Zr501       O525   2.437       .  S
Zr501       O527   2.402       .  S
Zr501       O505   2.387       .  S
Zr501       O508   2.388       .  S
Zr502       O528   2.436       .  S
Zr502       O529   2.436       .  S
Zr502       O504   2.437       .  S
Zr502       O505   2.395       .  S
Zr502       O506   2.390       .  S
O503        H540   0.990       .  S
O504        H535   0.990       .  S
O504        H549   0.990       .  S
O506        H532   0.965       .  S
O507       Zr517   2.382       .  S
O508       Zr517   2.377       .  S
O508        H533   0.966       .  S
C509        C777   1.490       .  S
C510       C1329   1.471       .  S
C511       C1153   1.481       .  S
O512        H548   0.990       .  S
O513        C515   1.283       .  A
O514        C515   1.284       .  A
C515        C657   1.464       .  S
O516       Zr517   2.435       .  S
O516        H545   0.990       .  S
Zr517       O520   2.435       .  S
Zr517       O521   2.438       .  S
Zr517       O522   2.417       .  S
O518        C523   1.290       .  A
O519        H536   0.990       .  S
O519        H551   0.990       .  S
O520        H537   0.990       .  S
O521        H541   0.990       .  S
O521        H550   0.990       .  S
O522        C523   1.281       .  A
C523       C1505   1.491       .  S
O524        H543   0.990       .  S
O524        H547   0.991       .  S
O525        H539   0.990       .  S
O525        H546   0.990       .  S
O526        C530   1.290       .  A
O527        C530   1.279       .  A
O528        H538   0.991       .  S
O529        H542   0.991       .  S
C530        C561   1.483       .  S
C553        C554   1.411       .  A
C553        C558   1.418       .  A
C554        C555   1.398       .  A
C554        H563   1.081       .  S
C555        C556   1.402       .  A
C555        H564   1.084       .  S
C556        C562   1.402       .  A
C556        C557   1.409       .  A
C557        C559   1.406       .  A
C557        C558   1.405       .  A
C558        H565   1.084       .  S
C559        C560   1.402       .  A
C559        H566   1.084       .  S
C560        C561   1.405       .  A
C560        H567   1.083       .  S
C561        C562   1.409       .  A
C562        H568   1.084       .  S
C569        C570   1.415   1_455  A
C569        C574   1.407       .  A
C570        C571   1.415       .  A
C570        H579   1.081       .  S
C571        C572   1.410   1_654  A
C571        H580   1.083       .  S
C572        C578   1.425   1_455  A
C572        C573   1.409   1_556  A
C573        C575   1.386   1_554  A
C573        C574   1.394       .  A
C574        H581   1.084       .  S
C575        C576   1.381       .  A
C575        H582   1.085   1_556  S
C576        C577   1.423       .  A
C576        H583   1.080       .  S
C577        C578   1.423   1_455  A
C578        H584   1.081       .  S
C585        C586   1.415       .  A
C585        C590   1.417   1_455  A
C586        C587   1.402       .  A
C586        H595   1.083       .  S
C587        C588   1.401       .  A
C587        H596   1.083       .  S
C588        C594   1.410       .  A
C588        C589   1.409   1_455  A
C589        C591   1.397       .  A
C589        C590   1.402       .  A
C590        H597   1.082       .  S
C591        C592   1.392       .  A
C591        H598   1.084       .  S
C592        C593   1.416       .  A
C592        H599   1.082       .  S
C593        C594   1.416   1_655  A
C594        H600   1.083       .  S
C601        C602   1.418       .  A
C601        C606   1.413   1_655  A
C602        C603   1.389       .  A
C602        H611   1.083       .  S
C603        C604   1.394       .  A
C603        H612   1.084       .  S
C604        C610   1.400       .  A
C604        C605   1.412   1_655  A
C605        C607   1.401       .  A
C605        C606   1.409       .  A
C606        H613   1.080       .  S
C607        C608   1.399       .  A
C607        H614   1.083       .  S
C608        C609   1.414       .  A
C608        H615   1.080       .  S
C609        C610   1.411   1_455  A
C610        H616   1.085       .  S
C617        C618   1.417       .  A
C617        C622   1.420   1_455  A
C618        C619   1.393       .  A
C618        H627   1.083       .  S
C619        C620   1.396   1_556  A
C619        H628   1.084   1_556  S
C620        C626   1.404       .  A
C620        C621   1.410   1_455  A
C621        C623   1.405       .  A
C621        C622   1.416   1_554  A
C622        H629   1.079       .  S
C623        C624   1.406       .  A
C623        H630   1.083       .  S
C624        C625   1.414       .  A
C624        H631   1.079       .  S
C625        C626   1.414   1_655  A
C626        H632   1.085       .  S
C633        C634   1.413       .  A
C633        C638   1.404       .  A
C634        C635   1.396       .  A
C634        H643   1.083       .  S
C635        C636   1.398       .  A
C635        H644   1.084       .  S
C636        C642   1.407       .  A
C636        C637   1.413       .  A
C637        C639   1.393       .  A
C637        C638   1.407       .  A
C638        H645   1.084       .  S
C639        C640   1.393       .  A
C639        H646   1.084       .  S
C640        C641   1.422       .  A
C640        H647   1.079   1_655  S
C641        C642   1.413       .  A
C642        H648   1.084       .  S
C649        C650   1.412       .  A
C649        C654   1.417       .  A
C650        C651   1.400       .  A
C650        H659   1.083       .  S
C651        C652   1.402       .  A
C651        H660   1.083       .  S
C652        C658   1.406       .  A
C652        C653   1.411       .  A
C653        C655   1.403       .  A
C653        C654   1.398       .  A
C654        H661   1.081       .  S
C655        C656   1.394       .  A
C655        H662   1.084       .  S
C656        C657   1.400       .  A
C656        H663   1.084       .  S
C657        C658   1.405       .  A
C658        H664   1.085       .  S
C665        C666   1.414       .  A
C665        C670   1.414       .  A
C666        C667   1.388       .  A
C666        H675   1.083       .  S
C667        C668   1.394       .  A
C667        H676   1.084       .  S
C668        C674   1.397       .  A
C668        C669   1.414       .  A
C669        C671   1.405       .  A
C669        C670   1.407       .  A
C670        H677   1.080       .  S
C671        C672   1.401       .  A
C671        H678   1.083       .  S
C672        C673   1.403       .  A
C672        H679   1.083       .  S
C673        C674   1.397       .  A
C674        H680   1.086       .  S
C681        C682   1.414       .  A
C681        C686   1.416   1_565  A
C682        C683   1.384       .  A
C682        H691   1.084       .  S
C683        C684   1.393   1_455  A
C683        H692   1.084       .  S
C684        C690   1.392       .  A
C684        C685   1.410   1_565  A
C685        C687   1.405       .  A
C685        C686   1.408   1_655  A
C686        H693   1.080       .  S
C687        C688   1.403       .  A
C687        H694   1.083       .  S
C688        C689   1.413   1_545  A
C688        H695   1.079       .  S
C689        C690   1.411       .  A
C690        H696   1.084       .  S
C697        C698   1.425       .  A
C697        C702   1.414   1_565  A
C698        C699   1.397       .  A
C698        H707   1.080       .  S
C699        C700   1.395       .  A
C699        H708   1.084       .  S
C700        C706   1.410       .  A
C700        C701   1.409   1_565  A
C701        C703   1.396       .  A
C701        C702   1.406       .  A
C702        H709   1.070       .  S
C703        C704   1.392       .  A
C703        H710   1.084       .  S
C704        C705   1.417       .  A
C704        H711   1.083       .  S
C705        C706   1.413   1_545  A
C706        H712   1.079       .  S
C713        C714   1.418   1_545  A
C713        C718   1.408   1_545  A
C714        C715   1.409       .  A
C714        H723   1.083       .  S
C715        C716   1.406       .  A
C715        H724   1.083       .  S
C716        C722   1.414       .  A
C716        C717   1.406       .  A
C717        C719   1.386       .  A
C717        C718   1.386       .  A
C718        H725   1.077   1_565  S
C719        C720   1.376       .  A
C719        H726   1.085   1_565  S
C720        C721   1.419       .  A
C720        H727   1.076   1_565  S
C721        C722   1.422       .  A
C722        H728   1.084       .  S
C729        C730   1.419       .  A
C729        C734   1.415   1_545  A
C730        C731   1.398       .  A
C730        H739   1.083       .  S
C731        C732   1.400       .  A
C731        H740   1.084       .  S
C732        C738   1.407   1_655  A
C732        C733   1.405   1_545  A
C733        C735   1.397   1_655  A
C733        C734   1.408       .  A
C734        H741   1.077       .  S
C735        C736   1.398       .  A
C735        H742   1.084   1_455  S
C736        C737   1.422       .  A
C736        H743   1.074       .  S
C737        C738   1.422   1_565  A
C738        H744   1.080       .  S
C745        C746   1.420       .  A
C745        C750   1.416       .  A
C746        C747   1.397       .  A
C746        H755   1.083       .  S
C747        C748   1.398       .  A
C747        H756   1.084       .  S
C748        C754   1.408       .  A
C748        C749   1.413       .  A
C749        C751   1.400       .  A
C749        C750   1.402       .  A
C750        H757   1.080       .  S
C751        C752   1.392       .  A
C751        H758   1.084       .  S
C752        C753   1.404       .  A
C752        H759   1.084       .  S
C753        C754   1.404       .  A
C754        H760   1.084       .  S
C761        C762   1.415       .  A
C761        C766   1.422       .  A
C762        C763   1.402       .  A
C762        H771   1.082       .  S
C763        C764   1.401       .  A
C763        H772   1.083       .  S
C764        C770   1.414       .  A
C764        C765   1.410       .  A
C765        C767   1.405       .  A
C765        C766   1.414       .  A
C766        H773   1.080       .  S
C767        C768   1.403       .  A
C767        H774   1.084       .  S
C768        C769   1.410       .  A
C768        H775   1.083       .  S
C769        C770   1.413       .  A
C770        H776   1.084       .  S
C777        C778   1.408       .  A
C777        C782   1.408       .  A
C778        C779   1.401       .  A
C778        H787   1.083       .  S
C779        C780   1.404       .  A
C779        H788   1.084       .  S
C780        C786   1.409       .  A
C780        C781   1.412       .  A
C781        C783   1.397       .  A
C781        C782   1.404       .  A
C782        H789   1.084       .  S
C783        C784   1.394       .  A
C783        H790   1.084       .  S
C784        C785   1.416       .  A
C784        H791   1.083       .  S
C785        C786   1.416       .  A
C786        H792   1.079       .  S
C793        C794   1.404       .  A
C793        C798   1.402       .  A
C794        C795   1.396       .  A
C794        H803   1.084       .  S
C795        C796   1.402       .  A
C795        H804   1.084       .  S
C796        C802   1.405       .  A
C796        C797   1.414       .  A
C797        C799   1.398       .  A
C797        C798   1.407       .  A
C798        H805   1.084       .  S
C799        C800   1.396       .  A
C799        H806   1.083       .  S
C800        C801   1.414       .  A
C800        H807   1.083       .  S
C801        C802   1.415       .  A
C802        H808   1.081       .  S
C809        C810   1.415       .  A
C809        C814   1.416   1_556  A
C810        C811   1.401       .  A
C810        H819   1.083       .  S
C811        C812   1.401   1_565  A
C811        H820   1.083       .  S
C812        C818   1.409       .  A
C812        C813   1.408   1_546  A
C813        C815   1.397   1_565  A
C813        C814   1.404       .  A
C814        H821   1.080       .  S
C815        C816   1.394       .  A
C815        H822   1.084   1_545  S
C816        C817   1.419   1_554  A
C816        H823   1.078       .  S
C817        C818   1.418       .  A
C818        H824   1.084       .  S
C825        C826   1.420       .  A
C825        C830   1.413   1_556  A
C826        C827   1.396       .  A
C826        H835   1.078       .  S
C827        C828   1.396       .  A
C827        H836   1.084       .  S
C828        C834   1.410       .  A
C828        C829   1.412   1_556  A
C829        C831   1.395       .  A
C829        C830   1.406       .  A
C830        H837   1.084       .  S
C831        C832   1.393       .  A
C831        H838   1.084       .  S
C832        C833   1.419       .  A
C832        H839   1.083       .  S
C833        C834   1.410   1_554  A
C834        H840   1.081       .  S
C841        C842   1.407       .  A
C841        C846   1.414       .  A
C842        C843   1.400       .  A
C842        H851   1.083       .  S
C843        C844   1.404       .  A
C843        H852   1.084       .  S
C844        C850   1.407       .  A
C844        C845   1.409       .  A
C845        C847   1.403       .  A
C845        C846   1.410       .  A
C846        H853   1.084       .  S
C847        C848   1.402       .  A
C847        H854   1.083       .  S
C848        C849   1.413       .  A
C848        H855   1.083       .  S
C849        C850   1.419       .  A
C850        H856   1.081       .  S
C857        C858   1.419       .  A
C857        C862   1.413   1_556  A
C858        C859   1.402       .  A
C858        H867   1.080       .  S
C859        C860   1.401       .  A
C859        H868   1.084       .  S
C860        C866   1.417       .  A
C860        C861   1.411   1_556  A
C861        C863   1.396       .  A
C861        C862   1.409       .  A
C862        H869   1.084       .  S
C863        C864   1.394       .  A
C863        H870   1.084       .  S
C864        C865   1.418       .  A
C864        H871   1.083       .  S
C865        C866   1.417   1_554  A
C866        H872   1.080       .  S
C873        C874   1.417       .  A
C873        C878   1.414   1_554  A
C874        C875   1.403       .  A
C874        H883   1.079       .  S
C875        C876   1.402   1_565  A
C875        H884   1.084   1_565  S
C876        C882   1.413       .  A
C876        C877   1.410   1_554  A
C877        C879   1.396       .  A
C877        C878   1.402   1_545  A
C878        H885   1.085       .  S
C879        C880   1.391       .  A
C879        H886   1.084       .  S
C880        C881   1.416       .  A
C880        H887   1.083       .  S
C881        C882   1.415   1_556  A
C882        H888   1.081       .  S
C889        C890   1.411       .  A
C889        C894   1.411       .  A
C890        C891   1.411       .  A
C890        H899   1.083       .  S
C891        C892   1.408       .  A
C891        H900   1.083       .  S
C892        C898   1.425       .  A
C892        C893   1.412       .  A
C893        C895   1.395       .  A
C893        C894   1.411       .  A
C894        H901   1.084       .  S
C895        C896   1.394       .  A
C895        H902   1.084       .  S
C896        C897   1.419       .  A
C896        H903   1.083       .  S
C897        C898   1.423       .  A
C898        H904   1.078       .  S
C905        C906   1.414       .  A
C905        C910   1.418       .  A
C906        C907   1.406       .  A
C906        H915   1.083       .  S
C907        C908   1.405       .  A
C907        H916   1.083       .  S
C908        C914   1.415       .  A
C908        C909   1.411       .  A
C909        C911   1.401       .  A
C909        C910   1.402       .  A
C910        H917   1.081       .  S
C911        C912   1.393       .  A
C911        H918   1.084       .  S
C912        C913   1.401       .  A
C912        H919   1.084       .  S
C913        C914   1.410       .  A
C914        H920   1.084       .  S
C921        C922   1.410       .  A
C921        C926   1.412       .  A
C922        C923   1.385       .  A
C922        H931   1.083       .  S
C923        C924   1.393       .  A
C923        H932   1.084       .  S
C924        C930   1.395       .  A
C924        C925   1.411       .  A
C925        C927   1.404       .  A
C925        C926   1.415       .  A
C926        H933   1.084       .  S
C927        C928   1.406       .  A
C927        H934   1.083       .  S
C928        C929   1.416       .  A
C928        H935   1.078       .  S
C929        C930   1.409       .  A
C930        H936   1.085       .  S
C937        C938   1.409       .  A
C937        C942   1.402       .  A
C938        C939   1.400       .  A
C938        H947   1.083       .  S
C939        C940   1.402       .  A
C939        H948   1.084       .  S
C940        C946   1.407       .  A
C940        C941   1.412       .  A
C941        C943   1.393       .  A
C941        C942   1.397       .  A
C942        H949   1.084       .  S
C943        C944   1.388       .  A
C943        H950   1.084       .  S
C944        C945   1.417       .  A
C944        H951   1.082       .  S
C945        C946   1.412       .  A
C946        H952   1.082       .  S
C953        C954   1.404       .  A
C953        C958   1.401       .  A
C954        C955   1.402       .  A
C954        H963   1.083       .  S
C955        C956   1.404       .  A
C955        H964   1.083       .  S
C956        C962   1.409       .  A
C956        C957   1.413       .  A
C957        C959   1.394       .  A
C957        C958   1.403       .  A
C958        H965   1.085       .  S
C959        C960   1.391       .  A
C959        H966   1.084       .  S
C960        C961   1.419       .  A
C960        H967   1.080       .  S
C961        C962   1.415       .  A
C962        H968   1.084       .  S
C969        C970   1.415       .  A
C969        C974   1.414       .  A
C970        C971   1.392       .  A
C970        H979   1.080   1_545  S
C971        C972   1.396       .  A
C971        H980   1.084       .  S
C972        C978   1.398       .  A
C972        C973   1.412       .  A
C973        C975   1.404       .  A
C973        C974   1.401       .  A
C974        H981   1.084       .  S
C975        C976   1.399       .  A
C975        H982   1.084       .  S
C976        C977   1.402       .  A
C976        H983   1.083       .  S
C977        C978   1.398       .  A
C978        H984   1.085       .  S
C985        C986   1.412       .  A
C985        C990   1.421       .  A
C986        C987   1.403       .  A
C986        H995   1.083       .  S
C987        C988   1.405       .  A
C987        H996   1.083       .  S
C988        C994   1.408       .  A
C988        C989   1.407       .  A
C989        C991   1.403       .  A
C989        C990   1.400       .  A
C990        H997   1.080       .  S
C991        C992   1.396       .  A
C991        H998   1.084       .  S
C992        C993   1.405       .  A
C992        H999   1.083       .  S
C993        C994   1.415       .  A
C994       H1000   1.084       .  S
C1001      C1002   1.416       .  A
C1001      C1006   1.418       .  A
C1002      C1003   1.394       .  A
C1002      H1011   1.083       .  S
C1003      C1004   1.397       .  A
C1003      H1012   1.084       .  S
C1004      C1010   1.406       .  A
C1004      C1005   1.412       .  A
C1005      C1007   1.405       .  A
C1005      C1006   1.413       .  A
C1006      H1013   1.081       .  S
C1007      C1008   1.404       .  A
C1007      H1014   1.083       .  S
C1008      C1009   1.409       .  A
C1008      H1015   1.083       .  S
C1009      C1010   1.410       .  A
C1010      H1016   1.084       .  S
C1017      C1018   1.416       .  A
C1017      C1022   1.411       .  A
C1018      C1019   1.397       .  A
C1018      H1027   1.083       .  S
C1019      C1020   1.399       .  A
C1019      H1028   1.083       .  S
C1020      C1026   1.408       .  A
C1020      C1021   1.414       .  A
C1021      C1023   1.401       .  A
C1021      C1022   1.405       .  A
C1022      H1029   1.079       .  S
C1023      C1024   1.396       .  A
C1023      H1030   1.084       .  S
C1024      C1025   1.406       .  A
C1024      H1031   1.083       .  S
C1025      C1026   1.404       .  A
C1026      H1032   1.084       .  S
C1033      C1034   1.402       .  A
C1033      C1038   1.405       .  A
C1034      C1035   1.397       .  A
C1034      H1043   1.083       .  S
C1035      C1036   1.403       .  A
C1035      H1044   1.084       .  S
C1036      C1042   1.399       .  A
C1036      C1037   1.410       .  A
C1037      C1039   1.401       .  A
C1037      C1038   1.404       .  A
C1038      H1045   1.085       .  S
C1039      C1040   1.399       .  A
C1039      H1046   1.084       .  S
C1040      C1041   1.413       .  A
C1040      H1047   1.078       .  S
C1041      C1042   1.416       .  A
C1042      H1048   1.084       .  S
C1049      C1050   1.420       .  A
C1049      C1054   1.417       .  A
C1050      C1051   1.394       .  A
C1050      H1059   1.074       .  S
C1051      C1052   1.394       .  A
C1051      H1060   1.084       .  S
C1052      C1058   1.406       .  A
C1052      C1053   1.412       .  A
C1053      C1055   1.402       .  A
C1053      C1054   1.407       .  A
C1054      H1061   1.081       .  S
C1055      C1056   1.398       .  A
C1055      H1062   1.083       .  S
C1056      C1057   1.403       .  A
C1056      H1063   1.083       .  S
C1057      C1058   1.402       .  A
C1058      H1064   1.085       .  S
C1065      C1066   1.416       .  A
C1065      C1070   1.418       .  A
C1066      C1067   1.392       .  A
C1066      H1075   1.082       .  S
C1067      C1068   1.397       .  A
C1067      H1076   1.084       .  S
C1068      C1074   1.403       .  A
C1068      C1069   1.411       .  A
C1069      C1071   1.406       .  A
C1069      C1070   1.412       .  A
C1070      H1077   1.082       .  S
C1071      C1072   1.405       .  A
C1071      H1078   1.083       .  S
C1072      C1073   1.407       .  A
C1072      H1079   1.083       .  S
C1073      C1074   1.408       .  A
C1074      H1080   1.084       .  S
C1081      C1082   1.424       .  A
C1081      C1086   1.429       .  A
C1082      C1083   1.393       .  A
C1082      H1091   1.078       .  S
C1083      C1084   1.392       .  A
C1083      H1092   1.084       .  S
C1084      C1090   1.407       .  A
C1084      C1085   1.409       .  A
C1085      C1087   1.410       .  A
C1085      C1086   1.422       .  A
C1086      H1093   1.084       .  S
C1087      C1088   1.412       .  A
C1087      H1094   1.083       .  S
C1088      C1089   1.408       .  A
C1088      H1095   1.083       .  S
C1089      C1090   1.406       .  A
C1090      H1096   1.085       .  S
C1097      C1098   1.406       .  A
C1097      C1102   1.407       .  A
C1098      C1099   1.396       .  A
C1098      H1107   1.083       .  S
C1099      C1100   1.401       .  A
C1099      H1108   1.084       .  S
C1100      C1106   1.406       .  A
C1100      C1101   1.413       .  A
C1101      C1103   1.398       .  A
C1101      C1102   1.408       .  A
C1102      H1109   1.084       .  S
C1103      C1104   1.396       .  A
C1103      H1110   1.084       .  S
C1104      C1105   1.418       .  A
C1104      H1111   1.083       .  S
C1105      C1106   1.413       .  A
C1106      H1112   1.081       .  S
C1113      C1114   1.418       .  A
C1113      C1118   1.418       .  A
C1114      C1115   1.395       .  A
C1114      H1123   1.083       .  S
C1115      C1116   1.397       .  A
C1115      H1124   1.084       .  S
C1116      C1122   1.412       .  A
C1116      C1117   1.415       .  A
C1117      C1119   1.406       .  A
C1117      C1118   1.419       .  A
C1118      H1125   1.080       .  S
C1119      C1120   1.405       .  A
C1119      H1126   1.083       .  S
C1120      C1121   1.406       .  A
C1120      H1127   1.083       .  S
C1121      C1122   1.405       .  A
C1122      H1128   1.084       .  S
C1129      C1130   1.427       .  A
C1129      C1134   1.413       .  A
C1130      C1131   1.396       .  A
C1130      H1139   1.078       .  S
C1131      C1132   1.394       .  A
C1131      H1140   1.084       .  S
C1132      C1138   1.416   1_565  A
C1132      C1133   1.410       .  A
C1133      C1135   1.392   1_565  A
C1133      C1134   1.415       .  A
C1134      H1141   1.084       .  S
C1135      C1136   1.396       .  A
C1135      H1142   1.084   1_545  S
C1136      C1137   1.424       .  A
C1136      H1143   1.073       .  S
C1137      C1138   1.418       .  A
C1138      H1144   1.076       .  S
C1145      C1146   1.422       .  A
C1145      C1150   1.414       .  A
C1146      C1147   1.397       .  A
C1146      H1155   1.080       .  S
C1147      C1148   1.396       .  A
C1147      H1156   1.084       .  S
C1148      C1154   1.410       .  A
C1148      C1149   1.413       .  A
C1149      C1151   1.402       .  A
C1149      C1150   1.411       .  A
C1150      H1157   1.084       .  S
C1151      C1152   1.399       .  A
C1151      H1158   1.083       .  S
C1152      C1153   1.405       .  A
C1152      H1159   1.083       .  S
C1153      C1154   1.406       .  A
C1154      H1160   1.084       .  S
C1161      C1162   1.420       .  A
C1161      C1166   1.413       .  A
C1162      C1163   1.399       .  A
C1162      H1171   1.083       .  S
C1163      C1164   1.397       .  A
C1163      H1172   1.083       .  S
C1164      C1170   1.410       .  A
C1164      C1165   1.412       .  A
C1165      C1167   1.395       .  A
C1165      C1166   1.396       .  A
C1166      H1173   1.076       .  S
C1167      C1168   1.384       .  A
C1167      H1174   1.084       .  S
C1168      C1169   1.406       .  A
C1168      H1175   1.083       .  S
C1169      C1170   1.404       .  A
C1170      H1176   1.084       .  S
C1177      C1178   1.417       .  A
C1177      C1182   1.421       .  A
C1178      C1179   1.398       .  A
C1178      H1187   1.081       .  S
C1179      C1180   1.400       .  A
C1179      H1188   1.084       .  S
C1180      C1186   1.406       .  A
C1180      C1181   1.403       .  A
C1181      C1183   1.400       .  A
C1181      C1182   1.412       .  A
C1182      H1189   1.077       .  S
C1183      C1184   1.404       .  A
C1183      H1190   1.084       .  S
C1184      C1185   1.422       .  A
C1184      H1191   1.075       .  S
C1185      C1186   1.422       .  A
C1186      H1192   1.072       .  S
C1193      C1194   1.417       .  A
C1193      C1198   1.415       .  A
C1194      C1195   1.402       .  A
C1194      H1203   1.083       .  S
C1195      C1196   1.400       .  A
C1195      H1204   1.083       .  S
C1196      C1202   1.412       .  A
C1196      C1197   1.413       .  A
C1197      C1199   1.399       .  A
C1197      C1198   1.399       .  A
C1198      H1205   1.080       .  S
C1199      C1200   1.389       .  A
C1199      H1206   1.084       .  S
C1200      C1201   1.402       .  A
C1200      H1207   1.084       .  S
C1201      C1202   1.404       .  A
C1202      H1208   1.084       .  S
C1209      C1210   1.419       .  A
C1209      C1214   1.416       .  A
C1210      C1211   1.394       .  A
C1210      H1219   1.079       .  S
C1211      C1212   1.396       .  A
C1211      H1220   1.084       .  S
C1212      C1218   1.403       .  A
C1212      C1213   1.411       .  A
C1213      C1215   1.405       .  A
C1213      C1214   1.407       .  A
C1214      H1221   1.084       .  S
C1215      C1216   1.402       .  A
C1215      H1222   1.083       .  S
C1216      C1217   1.404       .  A
C1216      H1223   1.083       .  S
C1217      C1218   1.406       .  A
C1218      H1224   1.085       .  S
C1225      C1226   1.417       .  A
C1225      C1230   1.411       .  A
C1226      C1227   1.397       .  A
C1226      H1235   1.083       .  S
C1227      C1228   1.398       .  A
C1227      H1236   1.083       .  S
C1228      C1234   1.411       .  A
C1228      C1229   1.412       .  A
C1229      C1231   1.393       .  A
C1229      C1230   1.408       .  A
C1230      H1237   1.082       .  S
C1231      C1232   1.394       .  A
C1231      H1238   1.084       .  S
C1232      C1233   1.423       .  A
C1232      H1239   1.078       .  S
C1233      C1234   1.415       .  A
C1234      H1240   1.084       .  S
C1241      C1242   1.421       .  A
C1241      C1246   1.412       .  A
C1242      C1243   1.386       .  A
C1242      H1251   1.081       .  S
C1243      C1244   1.391   1_565  A
C1243      H1252   1.084   1_565  S
C1244      C1250   1.396       .  A
C1244      C1245   1.409       .  A
C1245      C1247   1.396       .  A
C1245      C1246   1.404   1_545  A
C1246      H1253   1.076       .  S
C1247      C1248   1.394       .  A
C1247      H1254   1.084       .  S
C1248      C1249   1.420       .  A
C1248      H1255   1.081       .  S
C1249      C1250   1.410       .  A
C1250      H1256   1.075       .  S
C1257      C1258   1.403       .  A
C1257      C1262   1.402       .  A
C1258      C1259   1.391       .  A
C1258      H1267   1.084       .  S
C1259      C1260   1.400       .  A
C1259      H1268   1.084       .  S
C1260      C1266   1.399       .  A
C1260      C1261   1.412       .  A
C1261      C1263   1.399       .  A
C1261      C1262   1.407       .  A
C1262      H1269   1.084       .  S
C1263      C1264   1.399       .  A
C1263      H1270   1.083       .  S
C1264      C1265   1.415       .  A
C1264      H1271   1.083       .  S
C1265      C1266   1.415       .  A
C1266      H1272   1.080       .  S
C1273      C1274   1.401       .  A
C1273      C1278   1.401       .  A
C1274      C1275   1.397       .  A
C1274      H1283   1.083       .  S
C1275      C1276   1.404       .  A
C1275      H1284   1.084       .  S
C1276      C1282   1.396       .  A
C1276      C1277   1.410       .  A
C1277      C1279   1.398       .  A
C1277      C1278   1.396       .  A
C1278      H1285   1.085       .  S
C1279      C1280   1.393       .  A
C1279      H1286   1.084       .  S
C1280      C1281   1.413       .  A
C1280      H1287   1.078       .  S
C1281      C1282   1.415       .  A
C1282      H1288   1.085       .  S
C1289      C1290   1.412       .  A
C1289      C1294   1.418       .  A
C1290      C1291   1.392       .  A
C1290      H1299   1.082       .  S
C1291      C1292   1.397       .  A
C1291      H1300   1.084       .  S
C1292      C1298   1.399       .  A
C1292      C1293   1.410       .  A
C1293      C1295   1.405       .  A
C1293      C1294   1.406       .  A
C1294      H1301   1.080       .  S
C1295      C1296   1.402       .  A
C1295      H1302   1.084       .  S
C1296      C1297   1.407       .  A
C1296      H1303   1.083       .  S
C1297      C1298   1.407       .  A
C1298      H1304   1.084       .  S
C1305      C1306   1.426       .  A
C1305      C1310   1.413       .  A
C1306      C1307   1.394       .  A
C1306      H1315   1.076       .  S
C1307      C1308   1.392   1_556  A
C1307      H1316   1.084   1_556  S
C1308      C1314   1.402       .  A
C1308      C1309   1.406   1_554  A
C1309      C1311   1.393   1_556  A
C1309      C1310   1.396       .  A
C1310      H1317   1.077       .  S
C1311      C1312   1.388       .  A
C1311      H1318   1.084       .  S
C1312      C1313   1.421       .  A
C1312      H1319   1.082       .  S
C1313      C1314   1.410       .  A
C1314      H1320   1.076       .  S
C1321      C1322   1.415       .  A
C1321      C1326   1.421       .  A
C1322      C1323   1.390       .  A
C1322      H1331   1.078       .  S
C1323      C1324   1.394       .  A
C1323      H1332   1.084       .  S
C1324      C1330   1.394       .  A
C1324      C1325   1.409       .  A
C1325      C1327   1.408       .  A
C1325      C1326   1.406       .  A
C1326      H1333   1.084       .  S
C1327      C1328   1.404       .  A
C1327      H1334   1.083       .  S
C1328      C1329   1.404       .  A
C1328      H1335   1.083       .  S
C1329      C1330   1.401       .  A
C1330      H1336   1.085       .  S
C1337      C1338   1.413       .  A
C1337      C1342   1.417       .  A
C1338      C1339   1.396       .  A
C1338      H1347   1.083       .  S
C1339      C1340   1.401       .  A
C1339      H1348   1.084       .  S
C1340      C1346   1.401       .  A
C1340      C1341   1.409       .  A
C1341      C1343   1.405       .  A
C1341      C1342   1.403       .  A
C1342      H1349   1.078       .  S
C1343      C1344   1.399       .  A
C1343      H1350   1.083       .  S
C1344      C1345   1.404       .  A
C1344      H1351   1.083       .  S
C1345      C1346   1.411       .  A
C1346      H1352   1.083       .  S
C1353      C1354   1.417       .  A
C1353      C1358   1.418       .  A
C1354      C1355   1.379       .  A
C1354      H1363   1.076       .  S
C1355      C1356   1.389       .  A
C1355      H1364   1.085       .  S
C1356      C1362   1.386       .  A
C1356      C1357   1.406       .  A
C1357      C1359   1.403       .  A
C1357      C1358   1.405       .  A
C1358      H1365   1.084       .  S
C1359      C1360   1.403       .  A
C1359      H1366   1.083       .  S
C1360      C1361   1.417       .  A
C1360      H1367   1.083       .  S
C1361      C1362   1.408       .  A
C1362      H1368   1.079       .  S
C1369      C1370   1.413       .  A
C1369      C1374   1.419       .  A
C1370      C1371   1.392       .  A
C1370      H1379   1.083       .  S
C1371      C1372   1.398       .  A
C1371      H1380   1.084       .  S
C1372      C1378   1.397       .  A
C1372      C1373   1.408       .  A
C1373      C1375   1.405       .  A
C1373      C1374   1.402       .  A
C1374      H1381   1.079       .  S
C1375      C1376   1.400       .  A
C1375      H1382   1.084       .  S
C1376      C1377   1.405       .  A
C1376      H1383   1.083       .  S
C1377      C1378   1.409       .  A
C1378      H1384   1.084       .  S
C1385      C1386   1.404       .  A
C1385      C1390   1.404       .  A
C1386      C1387   1.402       .  A
C1386      H1395   1.083       .  S
C1387      C1388   1.405       .  A
C1387      H1396   1.083       .  S
C1388      C1394   1.406       .  A
C1388      C1389   1.410       .  A
C1389      C1391   1.396       .  A
C1389      C1390   1.402       .  A
C1390      H1397   1.085       .  S
C1391      C1392   1.394       .  A
C1391      H1398   1.084       .  S
C1392      C1393   1.418       .  A
C1392      H1399   1.078       .  S
C1393      C1394   1.418       .  A
C1394      H1400   1.084       .  S
C1401      C1402   1.418       .  A
C1401      C1406   1.412       .  A
C1402      C1403   1.400       .  A
C1402      H1411   1.078       .  S
C1403      C1404   1.400       .  A
C1403      H1412   1.084       .  S
C1404      C1410   1.410       .  A
C1404      C1405   1.406       .  A
C1405      C1407   1.392       .  A
C1405      C1406   1.402       .  A
C1406      H1413   1.085       .  S
C1407      C1408   1.393       .  A
C1407      H1414   1.084       .  S
C1408      C1409   1.418       .  A
C1408      H1415   1.068       .  S
C1409      C1410   1.422       .  A
C1410      H1416   1.079       .  S
C1417      C1418   1.417       .  A
C1417      C1422   1.416       .  A
C1418      C1419   1.394       .  A
C1418      H1427   1.083       .  S
C1419      C1420   1.398   1_556  A
C1419      H1428   1.084       .  S
C1420      C1426   1.403       .  A
C1420      C1421   1.408   1_554  A
C1421      C1423   1.403   1_556  A
C1421      C1422   1.408       .  A
C1422      H1429   1.078       .  S
C1423      C1424   1.401       .  A
C1423      H1430   1.083   1_554  S
C1424      C1425   1.412       .  A
C1424      H1431   1.079       .  S
C1425      C1426   1.417       .  A
C1426      H1432   1.084       .  S
C1433      C1434   1.414       .  A
C1433      C1438   1.421       .  A
C1434      C1435   1.401       .  A
C1434      H1443   1.083       .  S
C1435      C1436   1.401       .  A
C1435      H1444   1.083       .  S
C1436      C1442   1.413       .  A
C1436      C1437   1.412       .  A
C1437      C1439   1.405       .  A
C1437      C1438   1.413       .  A
C1438      H1445   1.081       .  S
C1439      C1440   1.402       .  A
C1439      H1446   1.084       .  S
C1440      C1441   1.405       .  A
C1440      H1447   1.083       .  S
C1441      C1442   1.407       .  A
C1442      H1448   1.084       .  S
C1449      C1450   1.405       .  A
C1449      C1454   1.411       .  A
C1450      C1451   1.394       .  A
C1450      H1459   1.084       .  S
C1451      C1452   1.400       .  A
C1451      H1460   1.084       .  S
C1452      C1458   1.405       .  A
C1452      C1453   1.413       .  A
C1453      C1455   1.404       .  A
C1453      C1454   1.417       .  A
C1454      H1461   1.084       .  S
C1455      C1456   1.405       .  A
C1455      H1462   1.083       .  S
C1456      C1457   1.416       .  A
C1456      H1463   1.083       .  S
C1457      C1458   1.415       .  A
C1458      H1464   1.081       .  S
C1465      C1466   1.417       .  A
C1465      C1470   1.416       .  A
C1466      C1467   1.400       .  A
C1466      H1475   1.083       .  S
C1467      C1468   1.400       .  A
C1467      H1476   1.083       .  S
C1468      C1474   1.413       .  A
C1468      C1469   1.413       .  A
C1469      C1471   1.402       .  A
C1469      C1470   1.409       .  A
C1470      H1477   1.080       .  S
C1471      C1472   1.397       .  A
C1471      H1478   1.084       .  S
C1472      C1473   1.406       .  A
C1472      H1479   1.083       .  S
C1473      C1474   1.408       .  A
C1474      H1480   1.084       .  S
C1481      C1482   1.415       .  A
C1481      C1486   1.421       .  A
C1482      C1483   1.405       .  A
C1482      H1491   1.082       .  S
C1483      C1484   1.403   1_655  A
C1483      H1492   1.083       .  S
C1484      C1490   1.414       .  A
C1484      C1485   1.407   1_455  A
C1485      C1487   1.400   1_655  A
C1485      C1486   1.409       .  A
C1486      H1493   1.079       .  S
C1487      C1488   1.398       .  A
C1487      H1494   1.084   1_455  S
C1488      C1489   1.416       .  A
C1488      H1495   1.079       .  S
C1489      C1490   1.421       .  A
C1490      H1496   1.084       .  S
C1497      C1498   1.418       .  A
C1497      C1502   1.417       .  A
C1498      C1499   1.404       .  A
C1498      H1507   1.083       .  S
C1499      C1500   1.402       .  A
C1499      H1508   1.083       .  S
C1500      C1506   1.419       .  A
C1500      C1501   1.413       .  A
C1501      C1503   1.401       .  A
C1501      C1502   1.411       .  A
C1502      H1509   1.079       .  S
C1503      C1504   1.397       .  A
C1503      H1510   1.084       .  S
C1504      C1505   1.406       .  A
C1504      H1511   1.084       .  S
C1505      C1506   1.412       .  A
C1506      H1512   1.084       .  S
C1513      C1514   1.405       .  A
C1513      C1518   1.400       .  A
C1514      C1515   1.404       .  A
C1514      H1523   1.083       .  S
C1515      C1516   1.406       .  A
C1515      H1524   1.083       .  S
C1516      C1522   1.410       .  A
C1516      C1517   1.412       .  A
C1517      C1519   1.393       .  A
C1517      C1518   1.399       .  A
C1518      H1525   1.085       .  S
C1519      C1520   1.390       .  A
C1519      H1526   1.084       .  S
C1520      C1521   1.420       .  A
C1520      H1527   1.078       .  S
C1521      C1522   1.417       .  A
C1522      H1528   1.084       .  S
C1529      C1530   1.419       .  A
C1529      C1534   1.416       .  A
C1530      C1531   1.405       .  A
C1530      H1539   1.079       .  S
C1531      C1532   1.402       .  A
C1531      H1540   1.084       .  S
C1532      C1538   1.419       .  A
C1532      C1533   1.410       .  A
C1533      C1535   1.397       .  A
C1533      C1534   1.410       .  A
C1534      H1541   1.084       .  S
C1535      C1536   1.395       .  A
C1535      H1542   1.084       .  S
C1536      C1537   1.417       .  A
C1536      H1543   1.082       .  S
C1537      C1538   1.420       .  A
C1538      H1544   1.081       .  S
C1545      C1546   1.406       .  A
C1545      C1550   1.409       .  A
C1546      C1547   1.403       .  A
C1546      H1555   1.083       .  S
C1547      C1548   1.404       .  A
C1547      H1556   1.083       .  S
C1548      C1554   1.413       .  A
C1548      C1549   1.411       .  A
C1549      C1551   1.398       .  A
C1549      C1550   1.413       .  A
C1550      H1557   1.084       .  S
C1551      C1552   1.400       .  A
C1551      H1558   1.084       .  S
C1552      C1553   1.420       .  A
C1552      H1559   1.076       .  S
C1553      C1554   1.419       .  A
C1554      H1560   1.084       .  S
C1561      C1562   1.416       .  A
C1561      C1566   1.414       .  A
C1562      C1563   1.399       .  A
C1562      H1571   1.083       .  S
C1563      C1564   1.400       .  A
C1563      H1572   1.083       .  S
C1564      C1570   1.409       .  A
C1564      C1565   1.413       .  A
C1565      C1567   1.402       .  A
C1565      C1566   1.404       .  A
C1566      H1573   1.080       .  S
C1567      C1568   1.395       .  A
C1567      H1574   1.084       .  S
C1568      C1569   1.404       .  A
C1568      H1575   1.084       .  S
C1569      C1570   1.405       .  A
C1570      H1576   1.084       .  S
C1577      C1578   1.419       .  A
C1577      C1582   1.415       .  A
C1578      C1579   1.402       .  A
C1578      H1587   1.080       .  S
C1579      C1580   1.400       .  A
C1579      H1588   1.083       .  S
C1580      C1586   1.417       .  A
C1580      C1581   1.412       .  A
C1581      C1583   1.397       .  A
C1581      C1582   1.411       .  A
C1582      H1589   1.084       .  S
C1583      C1584   1.395       .  A
C1583      H1590   1.084       .  S
C1584      C1585   1.419       .  A
C1584      H1591   1.083       .  S
C1585      C1586   1.416       .  A
C1586      H1592   1.082       .  S
C1593      C1594   1.419       .  A
C1593      C1598   1.414       .  A
C1594      C1595   1.399       .  A
C1594      H1603   1.078       .  S
C1595      C1596   1.400   1_655  A
C1595      H1604   1.084       .  S
C1596      C1602   1.410       .  A
C1596      C1597   1.409   1_455  A
C1597      C1599   1.394   1_655  A
C1597      C1598   1.401       .  A
C1598      H1605   1.085       .  S
C1599      C1600   1.391       .  A
C1599      H1606   1.084       .  S
C1600      C1601   1.419       .  A
C1600      H1607   1.082       .  S
C1601      C1602   1.415       .  A
C1602      H1608   1.079       .  S
C1609      C1610   1.406       .  A
C1609      C1614   1.408       .  A
C1610      C1611   1.402       .  A
C1610      H1619   1.083       .  S
C1611      C1612   1.403       .  A
C1611      H1620   1.083       .  S
C1612      C1618   1.415       .  A
C1612      C1613   1.415       .  A
C1613      C1615   1.399       .  A
C1613      C1614   1.416       .  A
C1614      H1621   1.084       .  S
C1615      C1616   1.399       .  A
C1615      H1622   1.083       .  S
C1616      C1617   1.416       .  A
C1616      H1623   1.083       .  S
C1617      C1618   1.416       .  A
C1618      H1624   1.081       .  S
C1625      C1626   1.399       .  A
C1625      C1630   1.402       .  A
C1626      C1627   1.393       .  A
C1626      H1635   1.084       .  S
C1627      C1628   1.402       .  A
C1627      H1636   1.084       .  S
C1628      C1634   1.396       .  A
C1628      C1629   1.410       .  A
C1629      C1631   1.397       .  A
C1629      C1630   1.400       .  A
C1630      H1637   1.085       .  S
C1631      C1632   1.396       .  A
C1631      H1638   1.084       .  S
C1632      C1633   1.419       .  A
C1632      H1639   1.080       .  S
C1633      C1634   1.416       .  A
C1634      H1640   1.082       .  S
C1641      C1642   1.409       .  A
C1641      C1646   1.406       .  A
C1642      C1643   1.404       .  A
C1642      H1651   1.083       .  S
C1643      C1644   1.405       .  A
C1643      H1652   1.083       .  S
C1644      C1650   1.413       .  A
C1644      C1645   1.412       .  A
C1645      C1647   1.395       .  A
C1645      C1646   1.401       .  A
C1646      H1653   1.084       .  S
C1647      C1648   1.389       .  A
C1647      H1654   1.084       .  S
C1648      C1649   1.416       .  A
C1648      H1655   1.083       .  S
C1649      C1650   1.417       .  A
C1650      H1656   1.079       .  S
C1657      C1658   1.406       .  A
C1657      C1662   1.405       .  A
C1658      C1659   1.406       .  A
C1658      H1667   1.083       .  S
C1659      C1660   1.406       .  A
C1659      H1668   1.083       .  S
C1660      C1666   1.417       .  A
C1660      C1661   1.412       .  A
C1661      C1663   1.396       .  A
C1661      C1662   1.411       .  A
C1662      H1669   1.084       .  S
C1663      C1664   1.396       .  A
C1663      H1670   1.084       .  S
C1664      C1665   1.420       .  A
C1664      H1671   1.078       .  S
C1665      C1666   1.419       .  A
C1666      H1672   1.084       .  S
C1673      C1674   1.402       .  A
C1673      C1678   1.404       .  A
C1674      C1675   1.391       .  A
C1674      H1683   1.084       .  S
C1675      C1676   1.400       .  A
C1675      H1684   1.084       .  S
C1676      C1682   1.400       .  A
C1676      C1677   1.412       .  A
C1677      C1679   1.400       .  A
C1677      C1678   1.409       .  A
C1678      H1685   1.084       .  S
C1679      C1680   1.399       .  A
C1679      H1686   1.083       .  S
C1680      C1681   1.416       .  A
C1680      H1687   1.083       .  S
C1681      C1682   1.416       .  A
C1682      H1688   1.079       .  S
C1689      C1690   1.405       .  A
C1689      C1694   1.398       .  A
C1690      C1691   1.407       .  A
C1690      H1699   1.083       .  S
C1691      C1692   1.407       .  A
C1691      H1700   1.083       .  S
C1692      C1698   1.418       .  A
C1692      C1693   1.413       .  A
C1693      C1695   1.388       .  A
C1693      C1694   1.401       .  A
C1694      H1701   1.085       .  S
C1695      C1696   1.386       .  A
C1695      H1702   1.084       .  S
C1696      C1697   1.424       .  A
C1696      H1703   1.080       .  S
C1697      C1698   1.417       .  A
C1698      H1704   1.083       .  S
