geometry optimzed in LAMMPS
_audit_creation_date              2020-11-30 
_audit_creation_method            'lammps2cif' 
_symmetry_space_group_name_H-M    'P1' 
_symmetry_Int_Tables_number       1 
_symmetry_cell_setting            triclinic 
loop_ 
_symmetry_equiv_pos_as_xyz 
  x,y,z 
_cell_length_a                    37.93113744 
_cell_length_b                    37.97102443561247 
_cell_length_c                    44.98712035055025 
_cell_angle_alpha                 89.9297701401076 
_cell_angle_beta                  90.02390652973644 
_cell_angle_gamma                 119.90597049653277 
loop_ 
_atom_site_label 
_atom_site_type_symbol 
_atom_site_fract_x 
_atom_site_fract_y 
_atom_site_fract_z 
_atom_site_charge 
Fe1        Fe  0.67934888  0.83973430  0.12545617     1.65800
Fe2        Fe  0.58832202  0.79556803  0.16236015     1.73200
Fe3        Fe  0.58985443  0.79535419  0.08628037     1.54400
O4          O  0.62788930  0.85106448  0.06723521    -0.82300
O5          O  0.55010275  0.73615675  0.14937627    -0.80600
O6          O  0.68379373  0.88265248  0.09505073    -0.84800
O7          O  0.68418763  0.80504027  0.09194634    -0.79600
O8          O  0.55144398  0.81682666  0.09821647    -0.81400
O9          O  0.62475367  0.77662742  0.18255744    -0.84200
C10         C  0.66064934  0.78003588  0.07259161     0.96600
C11         C  0.66230397  0.88165018  0.07304954     1.04000
O12         O  0.61919601  0.81021537  0.12469258    -1.13100
O13         O  0.62246260  0.85286702  0.18004230    -0.84000
O14         O  0.68347026  0.87886584  0.15901985    -0.79100
O15         O  0.62412406  0.77180592  0.06936803    -0.79800
C16         C  0.65934105  0.88060266  0.17773893     0.95500
O17         O  0.68173006  0.80022995  0.15607827    -0.77700
O18         O  0.54795180  0.81298519  0.14757982    -0.82900
C19         C  0.53623947  0.71885819  0.12454903     0.98100
C20         C  0.53706974  0.82033942  0.12278218     1.04000
O21         O  0.54800557  0.73756204  0.09997917    -0.78500
C22         C  0.65918608  0.77986632  0.17771091     1.02300
Fe23       Fe  0.15198549  0.84008864  0.12499361     1.65800
Fe24       Fe  0.19603992  0.79390012  0.16259380     1.73200
Fe25       Fe  0.20019864  0.79863051  0.08677048     1.54400
O26         O  0.14588025  0.78320089  0.06543317    -0.82300
O27         O  0.25652874  0.81813043  0.15172506    -0.80600
O28         O  0.10943415  0.79978393  0.09522261    -0.84800
O29         O  0.18516216  0.87885920  0.09067052    -0.79600
O30         O  0.17742722  0.73813700  0.09724059    -0.81400
O31         O  0.21110680  0.84821790  0.18367615    -0.84200
C32         C  0.21373205  0.88320318  0.07363815     0.96600
C33         C  0.11332970  0.78346013  0.07172267     1.04000
O34         O  0.18271204  0.81078579  0.12478367    -1.13100
O35         O  0.13730129  0.76725743  0.17799675    -0.75600
O36         O  0.11394130  0.80591687  0.15932122    -0.79100
O37         O  0.22559434  0.85744732  0.07228967    -0.79800
C38         C  0.11070417  0.77807527  0.17668241     0.95500
O39         O  0.19173330  0.88327510  0.15480407    -0.77700
O40         O  0.18263844  0.73748104  0.14658778    -0.82900
C41         C  0.27474729  0.82088390  0.12746182     0.98100
C42         C  0.17542905  0.72000000  0.12145940     1.04000
O43         O  0.25699994  0.81307439  0.10243792    -0.78500
C44         C  0.20967947  0.88025360  0.17774359     1.02300
Fe45       Fe  0.15352898  0.31225814  0.12495871     1.65800
Fe46       Fe  0.19985000  0.40217618  0.08716134     1.73200
Fe47       Fe  0.19813778  0.40197393  0.16276253     1.54400
O48         O  0.14298108  0.36263287  0.18273371    -0.82300
O49         O  0.26007343  0.43662280  0.09966949    -0.80600
O50         O  0.10919603  0.30926072  0.15297144    -0.84800
O51         O  0.18532933  0.30745336  0.16064761    -0.79600
O52         O  0.17471170  0.43846872  0.15001625    -0.81400
O53         O  0.21380511  0.36182512  0.06713118    -0.84200
C54         C  0.21247567  0.33181728  0.17851191     0.96600
C55         C  0.11133261  0.32932391  0.17610381     1.04000
O56         O  0.18379165  0.37212182  0.12497657    -1.13100
O57         O  0.14154423  0.37097102  0.07089937    -0.75600
O58         O  0.11726349  0.30860154  0.08927617    -0.79100
O59         O  0.22367626  0.36934199  0.17952658    -0.79800
C60         C  0.11477738  0.33360226  0.07178845     0.95500
O61         O  0.19468292  0.30863901  0.09706468    -0.77700
O62         O  0.18793609  0.44696966  0.10150168    -0.82900
C63         C  0.27553352  0.45405420  0.12417712     0.98100
C64         C  0.17716658  0.45633807  0.12557882     1.04000
O65         O  0.25512312  0.44518817  0.14812300    -0.78500
C66         C  0.21222490  0.32859109  0.07379785     1.02300
Fe67       Fe  0.83644904  0.68195780  0.37442733     1.65800
Fe68       Fe  0.79107947  0.59158039  0.33688937     1.73200
Fe69       Fe  0.79245726  0.59213246  0.41289184     1.54400
O70         O  0.84794611  0.63063350  0.43232743    -0.82300
O71         O  0.73144609  0.55490377  0.35014436    -0.80600
O72         O  0.87991043  0.68619460  0.40428843    -0.84800
O73         O  0.80231180  0.68622066  0.40854368    -0.79600
O74         O  0.81520193  0.55492849  0.39998526    -0.81400
O75         O  0.77333671  0.62922548  0.31727706    -0.84200
C76         C  0.77666647  0.66226954  0.42743794     0.96600
C77         C  0.87867769  0.66499123  0.42655300     1.04000
O78         O  0.80676584  0.62193267  0.37475107    -1.13100
O79         O  0.84864002  0.62482104  0.31920696    -0.75600
O80         O  0.87484680  0.68582598  0.34024200    -0.79100
O81         O  0.76778498  0.62546750  0.43010554    -0.79800
C82         C  0.87656057  0.66161014  0.32157522     0.95500
O83         O  0.79630400  0.68508882  0.34479125    -0.77700
O84         O  0.80692916  0.54958886  0.35088636    -0.82900
C85         C  0.71502702  0.53974235  0.37499657     0.98100
C86         C  0.81642298  0.53951895  0.37520426     1.04000
O87         O  0.73480600  0.54974560  0.39919203    -0.78500
C88         C  0.77609659  0.66319798  0.32292874     1.02300
Fe89       Fe  0.83896450  0.15511635  0.37559507     1.65800
Fe90       Fe  0.79708494  0.20382746  0.41307336     1.73200
Fe91       Fe  0.79096239  0.19703677  0.33705981     1.54400
O92         O  0.84554591  0.21356255  0.31580825    -0.82300
O93         O  0.73689400  0.18261487  0.40236304    -0.80600
O94         O  0.87978794  0.19215847  0.34371135    -0.84800
O95         O  0.80267761  0.11396156  0.34353499    -0.79600
O96         O  0.81288601  0.25754022  0.34716642    -0.81400
O97         O  0.77932474  0.14906986  0.43463715    -0.84200
C98         C  0.77577417  0.11086217  0.32527390     0.96600
C99         C  0.87692836  0.21067863  0.32112969     1.04000
O100        O  0.80897567  0.18533968  0.37524416    -1.13100
O101        O  0.85567167  0.22803169  0.42859757    -0.75600
O102        O  0.88004882  0.19165453  0.40752882    -0.79100
O103        O  0.76629685  0.13826930  0.32216618    -0.79800
C104        C  0.88323271  0.21872743  0.42556888     0.95500
O105        O  0.80140466  0.11479264  0.40757166    -0.77700
O106        O  0.81341967  0.26083954  0.39661732    -0.82900
C107        C  0.71754176  0.17721955  0.37822013     0.98100
C108        C  0.81838350  0.27718392  0.37116414     1.04000
O109        O  0.73397790  0.18167237  0.35289869    -0.78500
C110        C  0.78211461  0.11757025  0.42968680     1.02300
Fe111      Fe  0.31153285  0.15496273  0.37564558     1.65800
Fe112      Fe  0.40183732  0.20185250  0.41317966     1.73200
Fe113      Fe  0.40105535  0.20109275  0.33728746     1.54400
O114        O  0.36253401  0.14610270  0.31706177    -0.82300
O115        O  0.43681196  0.26185485  0.40040033    -0.80600
O116        O  0.30869858  0.11166929  0.34632459    -0.84800
O117        O  0.30616844  0.18811847  0.34130814    -0.79600
O118        O  0.43819747  0.17821892  0.34951462    -0.81400
O119        O  0.36256649  0.21702171  0.43325856    -0.84200
C120        C  0.33014087  0.21544999  0.32338581     0.96600
C121        C  0.32933460  0.11420060  0.32337632     1.04000
O122        O  0.37145532  0.18587100  0.37539796    -1.13100
O123        O  0.37021136  0.14389223  0.43047830    -0.75600
O124        O  0.30870040  0.11789456  0.41015947    -0.79100
O125        O  0.36749116  0.22604550  0.32126572    -0.79800
C126        C  0.33317762  0.11628786  0.42861813     0.95500
O127        O  0.30730777  0.19444661  0.40500916    -0.77700
O128        O  0.44533329  0.18861012  0.39842202    -0.82900
C129        C  0.45305611  0.27809595  0.37574904     0.98100
C130        C  0.45489951  0.17865686  0.37409425     1.04000
O131        O  0.44380293  0.25824118  0.35161221    -0.78500
C132        C  0.32833408  0.21370131  0.42747184     1.02300
C133        C  0.60942693  0.14411345  0.35513674    -0.11400
C134        C  0.59617473  0.15875924  0.37884456     0.05700
C135        C  0.62200135  0.17596891  0.40352051    -0.10200
C136        C  0.66061684  0.17989254  0.40395231    -0.11800
C137        C  0.67462011  0.16734716  0.37952912    -0.01600
C138        C  0.64837657  0.14871621  0.35535314    -0.10700
C139        C  0.55707360  0.15897551  0.37702953     0.05700
H140        H  0.61326133  0.18823147  0.42197486     0.07600
H141        H  0.68031626  0.19471483  0.42277088     0.11100
H142        H  0.65826986  0.13840624  0.33634189     0.11400
H143        H  0.59004191  0.12984963  0.33609480     0.07700
C144        C  0.54379242  0.16661980  0.34979951    -0.11400
C145        C  0.50944927  0.17116631  0.34857462    -0.10700
C146        C  0.48790825  0.16866862  0.37459620    -0.01600
C147        C  0.50024368  0.15961260  0.40162556    -0.11800
C148        C  0.53421659  0.15451723  0.40279222    -0.10200
H149        H  0.56091891  0.17092446  0.32957378     0.07700
H150        H  0.50087118  0.17844024  0.32746212     0.11400
H151        H  0.48401316  0.15712528  0.42203503     0.11100
H152        H  0.54294359  0.14775151  0.42401826     0.07700
C153        C  0.61553664  0.45181044  0.40200280    -0.11400
C154        C  0.59174876  0.44045993  0.37604637     0.05700
C155        C  0.60749069  0.46487703  0.35050148    -0.10200
C156        C  0.64703899  0.49813664  0.35036859    -0.11800
C157        C  0.67151776  0.50800030  0.37589126    -0.01600
C158        C  0.65479736  0.48528306  0.40197361    -0.10700
C159        C  0.55276258  0.40115665  0.37492524     0.05700
H160        H  0.58966869  0.45764491  0.33031899     0.07600
H161        H  0.65880026  0.51541977  0.33004187     0.11100
H162        H  0.67273388  0.49211397  0.42208355     0.11400
H163        H  0.60480387  0.43358360  0.42199242     0.07700
C164        C  0.54230872  0.37692318  0.34925690    -0.11400
C165        C  0.50887271  0.33768659  0.34924627    -0.10700
C166        C  0.48521601  0.32140743  0.37499876    -0.01600
C167        C  0.49448676  0.34611735  0.40031252    -0.11800
C168        C  0.52773950  0.38566880  0.40020722    -0.10200
H169        H  0.56111866  0.38737654  0.32953151     0.07700
H170        H  0.50267388  0.31949316  0.32935379     0.11400
H171        H  0.47661934  0.33461014  0.42042044     0.11100
H172        H  0.53437709  0.40376134  0.42018061     0.07700
C173        C  0.84326205  0.46200523  0.34616073    -0.11400
C174        C  0.83821466  0.43846374  0.37169941     0.05700
C175        C  0.82968229  0.45109433  0.39888513    -0.10200
C176        C  0.82482545  0.48521428  0.40029719    -0.11800
C177        C  0.82760363  0.50724142  0.37449129    -0.01600
C178        C  0.83771852  0.49576656  0.34750286    -0.10700
C179        C  0.83882304  0.39942844  0.36985491     0.05700
H180        H  0.82477976  0.43359098  0.41898947     0.07600
H181        H  0.81684804  0.49309011  0.42139226     0.11100
H182        H  0.84054617  0.51241576  0.32723994     0.11400
H183        H  0.85080741  0.45401636  0.32496325     0.07700
C184        C  0.82413650  0.37458804  0.34442402    -0.11400
C185        C  0.81972082  0.33571500  0.34421918    -0.10700
C186        C  0.82921147  0.32044102  0.36958630    -0.01600
C187        C  0.84581976  0.34588894  0.39439892    -0.11800
C188        C  0.85099982  0.38501603  0.39440737    -0.10200
H189        H  0.81399322  0.38415828  0.32515042     0.07700
H190        H  0.80675848  0.31680494  0.32475728     0.11400
H191        H  0.85401564  0.33521597  0.41412658     0.11100
H192        H  0.86369287  0.40357217  0.41402845     0.07700
C193        C  0.97768269  0.23940195  0.46811215    -0.11400
C194        C  0.98499080  0.27318128  0.48534340     0.05700
C195        C  0.96052912  0.29089786  0.48116212    -0.10200
C196        C  0.92810302  0.27393234  0.46109020    -0.11800
C197        C  0.91987030  0.23922437  0.44457119    -0.01600
C198        C  0.94560019  0.22272120  0.44781057    -0.10700
C199        C  0.01722080  0.28895437  0.00827498     0.05700
H200        H  0.96558853  0.31697766  0.99419373     0.07600
H201        H  0.90899806  0.28751427  0.45894280     0.11100
H202        H  0.94016971  0.19607834  0.43536813     0.11400
H203        H  0.99658029  0.22562925  0.47059851     0.07700
C204        C  0.02102861  0.26203887  0.02767670    -0.11400
C205        C  0.05197711  0.27660169  0.04890321    -0.10700
C206        C  0.07996331  0.31841776  0.05101226    -0.01600
C207        C  0.07553302  0.34539407  0.03198326    -0.11800
C208        C  0.04437308  0.33080710  0.01089849    -0.10200
H209        H  0.99999064  0.22965749  0.52640778     0.07700
H210        H  0.05440426  0.25500179  0.06326579     0.11400
H211        H  0.09652915  0.37778986  0.03304528     0.11100
H212        H  0.04208074  0.35214215  0.99615368     0.07700
C213        C  0.98277745  0.25508209  0.28839860    -0.11400
C214        C  0.97611242  0.26130475  0.25860629     0.05700
C215        C  0.93669730  0.25106991  0.24957768    -0.10200
C216        C  0.90464755  0.23537454  0.27003142    -0.11800
C217        C  0.91123951  0.22890485  0.29981304    -0.01600
C218        C  0.95061156  0.23873505  0.30873563    -0.10700
C219        C  0.01035574  0.27897245  0.23716151     0.05700
H220        H  0.93081525  0.25579044  0.22677479     0.07600
H221        H  0.87456577  0.22772421  0.26243663     0.11100
H222        H  0.95660357  0.23400887  0.33150807     0.11400
H223        H  0.01282604  0.26241810  0.29585775     0.07700
C224        C  0.04737806  0.31333328  0.24492394    -0.11400
C225        C  0.07980049  0.33014721  0.22486027    -0.10700
C226        C  0.07606281  0.31272206  0.19663754    -0.01600
C227        C  0.03895800  0.27823640  0.18889343    -0.11800
C228        C  0.00635257  0.26168901  0.20888925    -0.10200
H229        H  0.05112461  0.32742229  0.26649312     0.07700
H230        H  0.10799486  0.35651298  0.23165156     0.11400
H231        H  0.03513366  0.26389413  0.16742174     0.11100
H232        H  0.97822056  0.23496314  0.20247085     0.07700
C233        C  0.32338471  0.28395098  0.26511355    -0.11400
C234        C  0.28118867  0.26810642  0.26315756     0.05700
C235        C  0.25536054  0.23611810  0.28206620    -0.10200
C236        C  0.27136072  0.21977656  0.30220487    -0.11800
C237        C  0.31353884  0.23486590  0.30365792    -0.01600
C238        C  0.33940948  0.26741985  0.28509916    -0.10700
C239        C  0.26408615  0.28448327  0.24114653     0.05700
H240        H  0.22274002  0.22374803  0.28126085     0.07600
H241        H  0.25057650  0.19478463  0.31622163     0.11100
H242        H  0.37203135  0.27979057  0.28570296     0.11400
H243        H  0.34391500  0.30846987  0.25064660     0.07700
C244        C  0.28133972  0.32658686  0.23728469    -0.11400
C245        C  0.26485926  0.34200452  0.21673819    -0.10700
C246        C  0.23103069  0.31559244  0.19942283    -0.01600
C247        C  0.21410325  0.27342197  0.20309164    -0.11800
C248        C  0.23037616  0.25804689  0.22382088    -0.10200
H249        H  0.30715680  0.34758685  0.25054744     0.07700
H250        H  0.27853678  0.37463081  0.21451161     0.11400
H251        H  0.18792671  0.25223934  0.19021490     0.11100
H252        H  0.21679847  0.22543544  0.22615462     0.07700
C253        C  0.31474288  0.26186372  0.49680607    -0.11400
C254        C  0.27921873  0.26291078  0.49017544     0.05700
C255        C  0.26033603  0.24881952  0.46248022    -0.10200
C256        C  0.27647024  0.23323176  0.44182711    -0.11800
C257        C  0.31207408  0.23203823  0.44842660    -0.01600
C258        C  0.33121958  0.24686749  0.47605199    -0.10700
C259        C  0.26243195  0.27963224  0.01186916     0.05700
H260        H  0.23281912  0.24940841  0.45703665     0.07600
H261        H  0.26099332  0.22198267  0.42079177     0.11100
H262        H  0.35862374  0.24629537  0.48188764     0.11400
H263        H  0.32994318  0.27303811  0.01795227     0.07700
C264        C  0.25420914  0.26498576  0.04118795    -0.11400
C265        C  0.23800839  0.28091407  0.06155398    -0.10700
C266        C  0.23057543  0.31223849  0.05298241    -0.01600
C267        C  0.23945115  0.32711428  0.02369073    -0.11800
C268        C  0.25492665  0.31073602  0.00329123    -0.10200
H269        H  0.25976790  0.24086260  0.04813489     0.07700
H270        H  0.23138493  0.26881207  0.08394975     0.11400
H271        H  0.23379815  0.35101405  0.01633575     0.11100
H272        H  0.26140403  0.32260478  0.48082041     0.07700
C273        C  0.28691036  0.96115050  0.01902305    -0.11400
C274        C  0.26795407  0.98411117  0.01322259     0.05700
C275        C  0.23191460  0.97471432  0.02838818    -0.10200
C276        C  0.21481412  0.94257492  0.04862055    -0.11800
C277        C  0.23331466  0.91904958  0.05395396    -0.01600
C278        C  0.26969413  0.92885345  0.03911712    -0.10700
C279        C  0.28518652  0.01725144  0.49097927     0.05700
H280        H  0.21694794  0.99227573  0.02460610     0.07600
H281        H  0.18668132  0.93565583  0.05961477     0.11100
H282        H  0.28467031  0.91127491  0.04278486     0.11400
H283        H  0.31450433  0.96751708  0.50745654     0.07700
C284        C  0.32726561  0.04452100  0.48965508    -0.11400
C285        C  0.34314604  0.07636398  0.46905669    -0.10700
C286        C  0.31723138  0.08132053  0.44927489    -0.01600
C287        C  0.27524520  0.05348053  0.45031210    -0.11800
C288        C  0.25943039  0.02186820  0.47093341    -0.10200
H289        H  0.34777186  0.04176696  0.50499436     0.07700
H290        H  0.37561141  0.09734192  0.46887319     0.11400
H291        H  0.25437955  0.05639826  0.43545039     0.11100
H292        H  0.22696106  0.00088401  0.47112356     0.07700
C293        C  0.26607945  0.00826878  0.29080228    -0.11400
C294        C  0.28198209  0.01370040  0.26187177     0.05700
C295        C  0.31438879  0.05187672  0.25371479    -0.10200
C296        C  0.33034264  0.08412407  0.27394137    -0.11800
C297        C  0.31383792  0.07910385  0.30269342    -0.01600
C298        C  0.28159316  0.04072186  0.31092173    -0.10700
C299        C  0.26430711  0.97986855  0.24006697     0.05700
H300        H  0.32741656  0.05673382  0.23164044     0.07600
H301        H  0.35511265  0.11325688  0.26681275     0.11100
H302        H  0.26820270  0.03579628  0.33286883     0.11400
H303        H  0.24096602  0.97914551  0.29758996     0.07700
C304        C  0.25782310  0.94128837  0.24783871    -0.11400
C305        C  0.24078645  0.90929851  0.22740519    -0.10700
C306        C  0.22919572  0.91494547  0.19883930    -0.01600
C307        C  0.23568711  0.95364524  0.19109691    -0.11800
C308        C  0.25337491  0.98583972  0.21141890    -0.10200
H309        H  0.26622546  0.93596654  0.26970521     0.07700
H310        H  0.23614321  0.87991524  0.23418232     0.11400
H311        H  0.22713981  0.95907945  0.16932447     0.11100
H312        H  0.25783267  0.01527135  0.20496385     0.07700
C313        C  0.01952772  0.75999857  0.22238109    -0.11400
C314        C  0.01056962  0.72455139  0.23813989     0.05700
C315        C  0.03375250  0.70570208  0.23264239    -0.10200
C316        C  0.06595644  0.72265358  0.21230862    -0.11800
C317        C  0.07519699  0.75845910  0.19682300    -0.01600
C318        C  0.05134182  0.77667148  0.20187736    -0.10700
C319        C  0.97738865  0.70784539  0.26046028     0.05700
H320        H  0.02759147  0.67844578  0.24459445     0.07600
H321        H  0.08381114  0.70791722  0.20889500     0.11100
H322        H  0.05776345  0.80434872  0.19043469     0.11400
H323        H  0.00179531  0.77484084  0.22588889     0.07700
C324        C  0.97317815  0.73397933  0.28037475    -0.11400
C325        C  0.94099307  0.71882844  0.30060886    -0.10700
C326        C  0.91209917  0.67716959  0.30132413    -0.01600
C327        C  0.91673736  0.65088289  0.28171310    -0.11800
C328        C  0.94916805  0.66606475  0.26157920    -0.10200
H329        H  0.99483517  0.76624975  0.28026760     0.07700
H330        H  0.93842584  0.73994306  0.31537800     0.11400
H331        H  0.89504939  0.61862876  0.28166461     0.11100
H332        H  0.95157387  0.64528817  0.24634789     0.07700
C333        C  0.98373131  0.73161235  0.45962172    -0.11400
C334        C  0.97978989  0.71353647  0.48763937     0.05700
C335        C  0.94274111  0.67889431  0.49504546    -0.10200
C336        C  0.91027017  0.66281042  0.47500329    -0.11800
C337        C  0.91395396  0.68115734  0.44710637    -0.01600
C338        C  0.95109550  0.71574095  0.43964132    -0.10700
C339        C  0.01397730  0.73101532  0.00924843     0.05700
H340        H  0.93894049  0.66405426  0.01633259     0.07600
H341        H  0.88205674  0.63626617  0.48157033     0.11100
H342        H  0.95491976  0.73067082  0.41839254     0.11400
H343        H  0.01180248  0.75856140  0.45340767     0.07700
C344        C  0.05399939  0.74427774  0.99987526    -0.11400
C345        C  0.08611044  0.76067211  0.02027000    -0.10700
C346        C  0.07898367  0.76468585  0.05043265    -0.01600
C347        C  0.03900659  0.75165843  0.05977278    -0.11800
C348        C  0.00681566  0.73472284  0.03944921    -0.10200
H349        H  0.06041308  0.74155246  0.47679881     0.07700
H350        H  0.11664109  0.77077546  0.01233829     0.11400
H351        H  0.03258613  0.75441595  0.08284204     0.11100
H352        H  0.97635714  0.72516582  0.04726625     0.07700
C353        C  0.16973417  0.54787195  0.15013441    -0.11400
C354        C  0.16154432  0.56124036  0.12315092     0.05700
C355        C  0.15594244  0.53806203  0.09737234    -0.10200
C356        C  0.15990116  0.50338114  0.09831511    -0.11800
C357        C  0.16889982  0.49058356  0.12515364    -0.01600
C358        C  0.17311425  0.51282710  0.15114494    -0.10700
C359        C  0.16101176  0.60024253  0.12159780     0.05700
H360        H  0.14882346  0.54689060  0.07632321     0.07600
H361        H  0.15631106  0.48677749  0.07792528     0.11100
H362        H  0.18063547  0.50406395  0.17208369     0.11400
H363        H  0.17499157  0.56524555  0.17033882     0.07700
C364        C  0.14627317  0.61319813  0.14545685    -0.11400
C365        C  0.14935890  0.65151012  0.14495886    -0.10700
C366        C  0.16664144  0.67743799  0.12040488    -0.01600
C367        C  0.17950453  0.66379140  0.09596426    -0.11800
C368        C  0.17709657  0.62584839  0.09666097    -0.10200
H369        H  0.13290588  0.59400313  0.16474308     0.07700
H370        H  0.13893689  0.66120060  0.16402293     0.11400
H371        H  0.19344514  0.68335010  0.07690901     0.11100
H372        H  0.18942376  0.61737111  0.07809434     0.07700
C373        C  0.73197109  0.97584992  0.22015886    -0.11400
C374        C  0.70590767  0.97871667  0.24097910     0.05700
C375        C  0.66413733  0.95036318  0.23983414    -0.10200
C376        C  0.64889344  0.91911640  0.21883209    -0.11800
C377        C  0.67506043  0.91564533  0.19838705    -0.01600
C378        C  0.71672585  0.94472989  0.19904904    -0.10700
C379        C  0.72237718  0.01096266  0.26397699     0.05700
H380        H  0.64338552  0.95172057  0.25569794     0.07600
H381        H  0.61664599  0.89725320  0.21897376     0.11100
H382        H  0.73773706  0.94304136  0.18362155     0.11400
H383        H  0.76422335  0.99772306  0.22021766     0.07700
C384        C  0.75855796  0.02057572  0.27901150    -0.11400
C385        C  0.77499435  0.05195383  0.29987857    -0.10700
C386        C  0.75584078  0.07470535  0.30588030    -0.01600
C387        C  0.71911211  0.06444521  0.29139955    -0.11800
C388        C  0.70241124  0.03271493  0.27078980    -0.10200
H389        H  0.77424326  0.00388019  0.27453264     0.07700
H390        H  0.80341536  0.05925939  0.31058914     0.11400
H391        H  0.70362165  0.08139290  0.29564861     0.11100
H392        H  0.67454067  0.02602403  0.25949086     0.07700
C393        C  0.72607222  0.98805164  0.04179703    -0.11400
C394        C  0.71052891  0.98319258  0.01281371     0.05700
C395        C  0.67844865  0.94518457  0.00408796    -0.10200
C396        C  0.66221399  0.91253852  0.02393918    -0.11800
C397        C  0.67823319  0.91704832  0.05278995    -0.01600
C398        C  0.71031799  0.95516787  0.06153491    -0.10700
C399        C  0.72820170  0.01744996  0.49147860     0.05700
H400        H  0.66585468  0.94081515  0.48189341     0.07600
H401        H  0.63764488  0.88351596  0.01646125     0.11100
H402        H  0.72326230  0.95956233  0.08360743     0.11400
H403        H  0.75099079  0.01707389  0.04892200     0.07700
C404        C  0.73322548  0.05544163  0.49933035    -0.11400
C405        C  0.74996827  0.08775755  0.47908282    -0.10700
C406        C  0.76265808  0.08287126  0.45074382    -0.01600
C407        C  0.75763857  0.04474154  0.44302192    -0.11800
C408        C  0.74029642  0.01230338  0.46308952    -0.10200
H409        H  0.72387140  0.05999262  0.02106536     0.07700
H410        H  0.75355054  0.11673616  0.48579226     0.11400
H411        H  0.76708048  0.03991569  0.42141337     0.11100
H412        H  0.73693026  0.98331423  0.45662875     0.07700
C413        C  0.70585824  0.66766809  0.48450740    -0.11400
C414        C  0.72415468  0.70977727  0.48908403     0.05700
C415        C  0.75871731  0.73602833  0.47241553    -0.10200
C416        C  0.77502108  0.72054616  0.45185745    -0.11800
C417        C  0.75739598  0.67840287  0.44773659    -0.01600
C418        C  0.72249158  0.65209824  0.46417284    -0.10700
C419        C  0.70760674  0.72648538  0.01131395     0.05700
H420        H  0.77309396  0.76863144  0.47523482     0.07600
H421        H  0.80200956  0.74162196  0.43964397     0.11100
H422        H  0.70819702  0.61948808  0.46145443     0.11400
H423        H  0.67926468  0.64677215  0.99717094     0.07700
C424        C  0.66565628  0.71217814  0.01290521    -0.11400
C425        C  0.65033856  0.72912591  0.03312235    -0.10700
C426        C  0.67662465  0.76046585  0.05239146    -0.01600
C427        C  0.71853854  0.77418314  0.05114894    -0.11800
C428        C  0.73385513  0.75746671  0.03075420    -0.10200
H429        H  0.64481081  0.68854518  0.99801356     0.07700
H430        H  0.61789986  0.71790526  0.03344975     0.11400
H431        H  0.73964110  0.79835101  0.06557459     0.11100
H432        H  0.76630278  0.76873588  0.53019505     0.07700
C433        C  0.66971681  0.72895257  0.24703822    -0.11400
C434        C  0.70387659  0.72539901  0.24018118     0.05700
C435        C  0.72266552  0.73886324  0.21232888    -0.10200
C436        C  0.70796954  0.75617063  0.19187241    -0.11800
C437        C  0.67385018  0.75989841  0.19870921    -0.01600
C438        C  0.65467802  0.74577910  0.22644655    -0.10700
C439        C  0.72029872  0.70807265  0.26201271     0.05700
H440        H  0.74927770  0.73674434  0.20662673     0.07600
H441        H  0.72344948  0.76679291  0.17075834     0.11100
H442        H  0.62843965  0.74837644  0.23248859     0.11400
H443        H  0.65453608  0.71850949  0.26827764     0.07700
C444        C  0.72680771  0.72115971  0.29176034    -0.11400
C445        C  0.74475884  0.70651305  0.31179374    -0.10700
C446        C  0.75571609  0.67795391  0.30251942    -0.01600
C447        C  0.74801891  0.66405014  0.27299056    -0.11800
C448        C  0.73079502  0.67917872  0.25291620    -0.10200
H449        H  0.71907733  0.74355529  0.29926034     0.07700
H450        H  0.75015732  0.71756036  0.33446618     0.11400
H451        H  0.75624111  0.64213926  0.26517237     0.11100
H452        H  0.72571721  0.66833107  0.23019132     0.07700
C453        C  0.46022006  0.84849735  0.15033184    -0.11400
C454        C  0.43587910  0.84140737  0.12499194     0.05700
C455        C  0.44782662  0.83146713  0.09810905    -0.10200
C456        C  0.48214724  0.82690226  0.09694978    -0.11800
C457        C  0.50494431  0.83159594  0.12273517    -0.01600
C458        C  0.49421635  0.84343683  0.14925257    -0.10700
C459        C  0.39666437  0.84130531  0.12701640     0.05700
H460        H  0.42959475  0.82521923  0.07822629     0.07600
H461        H  0.48954502  0.81762185  0.07621157     0.11100
H462        H  0.51150695  0.84778115  0.16942734     0.11400
H463        H  0.45254457  0.85714085  0.17121600     0.07700
C464        C  0.37214642  0.82606443  0.15255484    -0.11400
C465        C  0.33334076  0.82165948  0.15329209    -0.10700
C466        C  0.31788537  0.83166428  0.12833411    -0.01600
C467        C  0.34285715  0.84845769  0.10327781    -0.11800
C468        C  0.38197869  0.85358603  0.10273016    -0.10200
H469        H  0.38205256  0.81566635  0.17151152     0.07700
H470        H  0.31459666  0.80832405  0.17281021     0.11400
H471        H  0.33179975  0.85684116  0.08384944     0.11100
H472        H  0.40036040  0.86634230  0.08299945     0.07700
C473        C  0.45872508  0.61293822  0.15033677    -0.11400
C474        C  0.43603308  0.59603286  0.12423278     0.05700
C475        C  0.44904411  0.61862795  0.09775100    -0.10200
C476        C  0.48267914  0.65782806  0.09766291    -0.11800
C477        C  0.50393063  0.67556817  0.12410480    -0.01600
C478        C  0.49212477  0.65234370  0.15031983    -0.10700
C479        C  0.39690365  0.55688778  0.12516655     0.05700
H480        H  0.43208411  0.60689906  0.07732149     0.07600
H481        H  0.49092971  0.67485641  0.07705196     0.11100
H482        H  0.50810211  0.66492912  0.17099769     0.11400
H483        H  0.45010855  0.59605399  0.17100221     0.07700
C484        C  0.38357635  0.53003004  0.10081107    -0.11400
C485        C  0.34457481  0.49574126  0.10065735    -0.10700
C486        C  0.31835183  0.48742568  0.12500816    -0.01600
C487        C  0.33239514  0.51335981  0.14977584    -0.11800
C488        C  0.37098100  0.54770000  0.14978296    -0.10200
H489        H  0.40300239  0.53587764  0.08165499     0.07700
H490        H  0.33470283  0.47622373  0.08129527     0.11400
H491        H  0.31290996  0.50813069  0.16880988     0.11100
H492        H  0.37970014  0.56801131  0.16864833     0.07700
Fe493      Fe  0.67934909  0.83973442  0.62545622     1.65800
Fe494      Fe  0.58832211  0.79556773  0.66236013     1.73200
Fe495      Fe  0.58985469  0.79535415  0.58628037     1.54400
O496        O  0.62788930  0.85106457  0.56723536    -0.82300
O497        O  0.55010281  0.73615653  0.64937620    -0.80600
O498        O  0.68379393  0.88265249  0.59505066    -0.84800
O499        O  0.68418806  0.80504036  0.59194648    -0.79600
O500        O  0.55144402  0.81682636  0.59821661    -0.81400
O501        O  0.62475363  0.77662698  0.68255736    -0.84200
C502        C  0.66064987  0.78003615  0.57259162     0.96600
C503        C  0.66230401  0.88165023  0.57304959     1.04000
O504        O  0.61919622  0.81021535  0.62469257    -1.13100
O505        O  0.62246266  0.85286663  0.68004246    -0.84000
O506        O  0.68347019  0.87886603  0.65901974    -0.79100
O507        O  0.62412463  0.77180631  0.56936792    -0.79800
C508        C  0.65934098  0.88060253  0.67773898     0.95500
O509        O  0.68173035  0.80023025  0.65607851    -0.77700
O510        O  0.54795192  0.81298494  0.64757995    -0.82900
C511        C  0.53623977  0.71885793  0.62454894     0.98100
C512        C  0.53706981  0.82033914  0.62278233     1.04000
O513        O  0.54800609  0.73756179  0.59997909    -0.78500
C514        C  0.65918624  0.77986631  0.67771100     1.02300
Fe515      Fe  0.15198575  0.84008889  0.62499348     1.65800
Fe516      Fe  0.19603991  0.79390020  0.66259382     1.73200
Fe517      Fe  0.20019869  0.79863046  0.58677044     1.54400
O518        O  0.14588020  0.78320052  0.56543317    -0.82300
O519        O  0.25652868  0.81813016  0.65172503    -0.80600
O520        O  0.10943446  0.79978430  0.59522238    -0.84800
O521        O  0.18516265  0.87885949  0.59067045    -0.79600
O522        O  0.17742739  0.73813703  0.59724074    -0.81400
O523        O  0.21110703  0.84821809  0.68367606    -0.84200
C524        C  0.21373234  0.88320327  0.57363794     0.96600
C525        C  0.11332979  0.78346006  0.57172260     1.04000
O526        O  0.18271213  0.81078588  0.62478362    -1.13100
O527        O  0.13730128  0.76725777  0.67799682    -0.75600
O528        O  0.11394127  0.80591704  0.65932102    -0.79100
O529        O  0.22559438  0.85744722  0.57228937    -0.79800
C530        C  0.11070411  0.77807554  0.67668232     0.95500
O531        O  0.19173351  0.88327530  0.65480403    -0.77700
O532        O  0.18263828  0.73748102  0.64658795    -0.82900
C533        C  0.27474728  0.82088376  0.62746179     0.98100
C534        C  0.17542905  0.72000000  0.62145956     1.04000
O535        O  0.25700001  0.81307448  0.60243786    -0.78500
C536        C  0.20967970  0.88025378  0.67774353     1.02300
Fe537      Fe  0.15352910  0.31225794  0.62495866     1.65800
Fe538      Fe  0.19985016  0.40217616  0.58716140     1.73200
Fe539      Fe  0.19813780  0.40197379  0.66276263     1.54400
O540        O  0.14298092  0.36263281  0.68273362    -0.82300
O541        O  0.26007350  0.43662309  0.59966969    -0.80600
O542        O  0.10919628  0.30926027  0.65297162    -0.84800
O543        O  0.18532972  0.30745317  0.66064735    -0.79600
O544        O  0.17471196  0.43846884  0.65001632    -0.81400
O545        O  0.21380589  0.36182552  0.56713136    -0.84200
C546        C  0.21247585  0.33181702  0.67851178     0.96600
C547        C  0.11133262  0.32932364  0.67610381     1.04000
O548        O  0.18379174  0.37212169  0.62497662    -1.13100
O549        O  0.14154458  0.37097076  0.57089911    -0.75600
O550        O  0.11726338  0.30860142  0.58927631    -0.79100
O551        O  0.22367614  0.36934166  0.67952672    -0.79800
C552        C  0.11477753  0.33360208  0.57178836     0.95500
O553        O  0.19468278  0.30863880  0.59706438    -0.77700
O554        O  0.18793570  0.44696926  0.60150165    -0.82900
C555        C  0.27553362  0.45405420  0.62417740     0.98100
C556        C  0.17716652  0.45633792  0.62557882     1.04000
O557        O  0.25512325  0.44518796  0.64812328    -0.78500
C558        C  0.21222534  0.32859128  0.57379784     1.02300
Fe559      Fe  0.83644878  0.68195766  0.87442732     1.65800
Fe560      Fe  0.79107947  0.59158026  0.83688936     1.73200
Fe561      Fe  0.79245734  0.59213240  0.91289181     1.54400
O562        O  0.84794613  0.63063362  0.93232743    -0.82300
O563        O  0.73144610  0.55490370  0.85014438    -0.80600
O564        O  0.87991032  0.68619463  0.90428833    -0.84800
O565        O  0.80231147  0.68622036  0.90854371    -0.79600
O566        O  0.81520222  0.55492862  0.89998525    -0.81400
O567        O  0.77333685  0.62922542  0.81727698    -0.84200
C568        C  0.77666607  0.66226917  0.92743791     0.96600
C569        C  0.87867766  0.66499138  0.92655295     1.04000
O570        O  0.80676585  0.62193255  0.87475103    -1.13100
O571        O  0.84864005  0.62482093  0.81920703    -0.75600
O572        O  0.87484646  0.68582597  0.84024189    -0.79100
O573        O  0.76778474  0.62546717  0.93010548    -0.79800
C574        C  0.87656041  0.66161013  0.82157519     0.95500
O575        O  0.79630354  0.68508850  0.84479139    -0.77700
O576        O  0.80692898  0.54958866  0.85088637    -0.82900
C577        C  0.71502713  0.53974218  0.87499660     0.98100
C578        C  0.81642298  0.53951889  0.87520426     1.04000
O579        O  0.73480621  0.54974535  0.89919200    -0.78500
C580        C  0.77609640  0.66319775  0.82292878     1.02300
Fe581      Fe  0.83896439  0.15511642  0.87559501     1.65800
Fe582      Fe  0.79708467  0.20382736  0.91307329     1.73200
Fe583      Fe  0.79096212  0.19703667  0.83705975     1.54400
O584        O  0.84554565  0.21356247  0.81580816    -0.82300
O585        O  0.73689381  0.18261483  0.90236295    -0.80600
O586        O  0.87978780  0.19215852  0.84371124    -0.84800
O587        O  0.80267749  0.11396154  0.84353498    -0.79600
O588        O  0.81288582  0.25754012  0.84716633    -0.81400
O589        O  0.77932437  0.14906975  0.93463709    -0.84200
C590        C  0.77577383  0.11086200  0.82527402     0.96600
C591        C  0.87692815  0.21067863  0.82112956     1.04000
O592        O  0.80897536  0.18533953  0.87524409    -1.13100
O593        O  0.85567133  0.22803160  0.92859760    -0.75600
O594        O  0.88004870  0.19165471  0.90752878    -0.79100
O595        O  0.76629643  0.13826908  0.82216629    -0.79800
C596        C  0.88323241  0.21872741  0.92556898     0.95500
O597        O  0.80140455  0.11479274  0.90757162    -0.77700
O598        O  0.81341946  0.26083940  0.89661723    -0.82900
C599        C  0.71754153  0.17721949  0.87822006     0.98100
C600        C  0.81838332  0.27718380  0.87116405     1.04000
O601        O  0.73397766  0.18167234  0.85289862    -0.78500
C602        C  0.78211436  0.11757021  0.92968671     1.02300
Fe603      Fe  0.31153271  0.15496266  0.87564564     1.65800
Fe604      Fe  0.40183705  0.20185226  0.91317989     1.73200
Fe605      Fe  0.40105533  0.20109252  0.83728774     1.54400
O606        O  0.36253402  0.14610244  0.81706207    -0.82300
O607        O  0.43681172  0.26185465  0.90040067    -0.80600
O608        O  0.30869852  0.11166903  0.84632486    -0.84800
O609        O  0.30616833  0.18811802  0.84130791    -0.79600
O610        O  0.43819728  0.17821860  0.84951491    -0.81400
O611        O  0.36256595  0.21702122  0.93325874    -0.84200
C612        C  0.33014089  0.21544966  0.82338571     0.96600
C613        C  0.32933459  0.11420035  0.82337659     1.04000
O614        O  0.37145517  0.18587081  0.87539815    -1.13100
O615        O  0.37021119  0.14389194  0.93047838    -0.75600
O616        O  0.30870013  0.11789476  0.91015983    -0.79100
O617        O  0.36749126  0.22604535  0.82126590    -0.79800
C618        C  0.33317735  0.11628781  0.92861836     0.95500
O619        O  0.30730773  0.19444694  0.90500888    -0.77700
O620        O  0.44533318  0.18861009  0.89842226    -0.82900
C621        C  0.45305606  0.27809570  0.87574942     0.98100
C622        C  0.45489935  0.17865667  0.87409455     1.04000
O623        O  0.44380295  0.25824091  0.85161260    -0.78500
C624        C  0.32833376  0.21370123  0.92747177     1.02300
C625        C  0.60942659  0.14411327  0.85513684    -0.11400
C626        C  0.59617429  0.15875865  0.87884485     0.05700
C627        C  0.62200089  0.17596800  0.90352086    -0.10200
C628        C  0.66061642  0.17989174  0.90395251    -0.11800
C629        C  0.67461983  0.16734692  0.87952909    -0.01600
C630        C  0.64837630  0.14871623  0.85535304    -0.10700
C631        C  0.55707321  0.15897501  0.87702989     0.05700
H632        H  0.61326082  0.18823027  0.92197538     0.07600
H633        H  0.68031578  0.19471374  0.92277118     0.11100
H634        H  0.65826963  0.13840660  0.83634162     0.11400
H635        H  0.59004153  0.12984964  0.83609484     0.07700
C636        C  0.54379233  0.16661982  0.84979991    -0.11400
C637        C  0.50944925  0.17116641  0.84857502    -0.10700
C638        C  0.48790803  0.16866837  0.87459653    -0.01600
C639        C  0.50024320  0.15961198  0.90162587    -0.11800
C640        C  0.53421602  0.15451643  0.90279252    -0.10200
H641        H  0.56091901  0.17092485  0.82957425     0.07700
H642        H  0.50087140  0.17844071  0.82746254     0.11400
H643        H  0.48401255  0.15712448  0.92203528     0.11100
H644        H  0.54294285  0.14775039  0.92401852     0.07700
C645        C  0.61553685  0.45181043  0.90200311    -0.11400
C646        C  0.59174892  0.44045965  0.87604670     0.05700
C647        C  0.60749075  0.46487663  0.85050173    -0.10200
C648        C  0.64703898  0.49813632  0.85036875    -0.11800
C649        C  0.67151788  0.50800012  0.87589137    -0.01600
C650        C  0.65479758  0.48528302  0.90197379    -0.10700
C651        C  0.55276277  0.40115630  0.87492563     0.05700
H652        H  0.58966868  0.45764436  0.83031927     0.07600
H653        H  0.65880013  0.51541935  0.83004196     0.11100
H654        H  0.67273419  0.49211403  0.92208371     0.11400
H655        H  0.60480413  0.43358380  0.92199284     0.07700
C656        C  0.54230883  0.37692284  0.84925728    -0.11400
C657        C  0.50887280  0.33768624  0.84924669    -0.10700
C658        C  0.48521606  0.32140716  0.87499916    -0.01600
C659        C  0.49448685  0.34611712  0.90031290    -0.11800
C660        C  0.52773971  0.38566851  0.90020762    -0.10200
H661        H  0.56111868  0.38737619  0.82953187     0.07700
H662        H  0.50267394  0.31949277  0.82935422     0.11400
H663        H  0.47661938  0.33460998  0.92042081     0.11100
H664        H  0.53437735  0.40376105  0.92018102     0.07700
C665        C  0.84326162  0.46200490  0.84616073    -0.11400
C666        C  0.83821395  0.43846332  0.87169940     0.05700
C667        C  0.82968143  0.45109382  0.89888509    -0.10200
C668        C  0.82482492  0.48521395  0.90029715    -0.11800
C669        C  0.82760342  0.50724123  0.87449128    -0.01600
C670        C  0.83771827  0.49576633  0.84750286    -0.10700
C671        C  0.83882237  0.39942808  0.86985492     0.05700
H672        H  0.82477866  0.43359035  0.91898940     0.07600
H673        H  0.81684752  0.49308981  0.92139221     0.11100
H674        H  0.84054612  0.51241562  0.82723995     0.11400
H675        H  0.85080710  0.45401607  0.82496330     0.07700
C676        C  0.82413608  0.37458779  0.84442398    -0.11400
C677        C  0.81972066  0.33571485  0.84421908    -0.10700
C678        C  0.82921123  0.32044087  0.86958624    -0.01600
C679        C  0.84581924  0.34588869  0.89439894    -0.11800
C680        C  0.85099909  0.38501567  0.89440742    -0.10200
H681        H  0.81399284  0.38415803  0.82515033     0.07700
H682        H  0.80675858  0.31680488  0.82475713     0.11400
H683        H  0.85401506  0.33521572  0.91412663     0.11100
H684        H  0.86369195  0.40357174  0.91402858     0.07700
C685        C  0.97768223  0.23940176  0.96811248    -0.11400
C686        C  0.98499028  0.27318103  0.98534380     0.05700
C687        C  0.96052846  0.29089746  0.98116266    -0.10200
C688        C  0.92810232  0.27393192  0.96109077    -0.11800
C689        C  0.91986981  0.23922416  0.94457154    -0.01600
C690        C  0.94559982  0.22272113  0.94781081    -0.10700
C691        C  0.01722119  0.28895447  0.50827468     0.05700
H692        H  0.96558921  0.31697810  0.49419312     0.07600
H693        H  0.90899727  0.28751374  0.95894348     0.11100
H694        H  0.94016953  0.19607846  0.93536818     0.11400
H695        H  0.99657988  0.22562911  0.97059881     0.07700
C696        C  0.02102877  0.26203886  0.52767644    -0.11400
C697        C  0.05197718  0.27660157  0.54890303    -0.10700
C698        C  0.07996350  0.31841761  0.55101213    -0.01600
C699        C  0.07553334  0.34539400  0.53198312    -0.11800
C700        C  0.04437353  0.33080717  0.51089827    -0.10200
H701        H  0.99999055  0.22965747  0.02640808     0.07700
H702        H  0.05440420  0.25500158  0.56326565     0.11400
H703        H  0.09652948  0.37778978  0.53304521     0.11100
H704        H  0.04208134  0.35214232  0.49615346     0.07700
C705        C  0.98277714  0.25508156  0.78839836    -0.11400
C706        C  0.97611219  0.26130444  0.75860609     0.05700
C707        C  0.93669716  0.25106996  0.74957751    -0.10200
C708        C  0.90464738  0.23537466  0.77003125    -0.11800
C709        C  0.91123928  0.22890478  0.79981285    -0.01600
C710        C  0.95061124  0.23873460  0.80873538    -0.10700
C711        C  0.01035555  0.27897205  0.73716136     0.05700
H712        H  0.93081520  0.25579067  0.72677463     0.07600
H713        H  0.87456568  0.22772456  0.76243649     0.11100
H714        H  0.95660320  0.23400821  0.83150778     0.11400
H715        H  0.01282565  0.26241734  0.79585749     0.07700
C716        C  0.04737768  0.31333319  0.74492368    -0.11400
C717        C  0.07980012  0.33014721  0.72486003    -0.10700
C718        C  0.07606272  0.31272172  0.69663747    -0.01600
C719        C  0.03895812  0.27823565  0.68889349    -0.11800
C720        C  0.00635263  0.26168827  0.70888928    -0.10200
H721        H  0.05112405  0.32742242  0.76649276     0.07700
H722        H  0.10799429  0.35651330  0.73165120     0.11400
H723        H  0.03513400  0.26389311  0.66742196     0.11100
H724        H  0.97822072  0.23496215  0.70247097     0.07700
C725        C  0.32338498  0.28395087  0.76511345    -0.11400
C726        C  0.28118890  0.26810609  0.76315724     0.05700
C727        C  0.25536070  0.23611747  0.78206561    -0.10200
C728        C  0.27136081  0.21977596  0.80220434    -0.11800
C729        C  0.31353896  0.23486554  0.80365768    -0.01600
C730        C  0.33940967  0.26741966  0.78509908    -0.10700
C731        C  0.26408644  0.28448293  0.74114621     0.05700
H732        H  0.22274012  0.22374712  0.78125999     0.07600
H733        H  0.25057651  0.19478385  0.81622093     0.11100
H734        H  0.37203158  0.27979053  0.78570305     0.11400
H735        H  0.34391529  0.30846993  0.75064666     0.07700
C736        C  0.28133945  0.32658653  0.73728486    -0.11400
C737        C  0.26485897  0.34200418  0.71673840    -0.10700
C738        C  0.23103096  0.31559212  0.69942257    -0.01600
C739        C  0.21410414  0.27342162  0.70309082    -0.11800
C740        C  0.23037706  0.25804654  0.72382004    -0.10200
H741        H  0.30715607  0.34758653  0.75054798     0.07700
H742        H  0.27853599  0.37463048  0.71451223     0.11400
H743        H  0.18792804  0.25223895  0.69021370     0.11100
H744        H  0.21679986  0.22543508  0.72615340     0.07700
C745        C  0.31474203  0.26186322  0.99680604    -0.11400
C746        C  0.27921786  0.26291021  0.99017532     0.05700
C747        C  0.26033545  0.24881924  0.96247999    -0.10200
C748        C  0.27646988  0.23323172  0.94182686    -0.11800
C749        C  0.31207365  0.23203811  0.94842649    -0.01600
C750        C  0.33121894  0.24686720  0.97605195    -0.10700
C751        C  0.26243300  0.27963294  0.51186931     0.05700
H752        H  0.23281856  0.24940814  0.95703634     0.07600
H753        H  0.26099317  0.22198282  0.92079144     0.11100
H754        H  0.35862313  0.24629517  0.98188766     0.11400
H755        H  0.32994417  0.27303871  0.51795226     0.07700
C756        C  0.25421013  0.26498638  0.54118807    -0.11400
C757        C  0.23800922  0.28091455  0.56155410    -0.10700
C758        C  0.23057621  0.31223893  0.55298251    -0.01600
C759        C  0.23945214  0.32711490  0.52369090    -0.11800
C760        C  0.25492781  0.31073680  0.50329142    -0.10200
H761        H  0.25976888  0.24086320  0.54813499     0.07700
H762        H  0.23138561  0.26881241  0.58394982     0.11400
H763        H  0.23379905  0.35101464  0.51633594     0.11100
H764        H  0.26140280  0.32260392  0.98082020     0.07700
C765        C  0.28691075  0.96115053  0.51902278    -0.11400
C766        C  0.26795452  0.98411128  0.51322237     0.05700
C767        C  0.23191514  0.97471457  0.52838801    -0.10200
C768        C  0.21481454  0.94257507  0.54862031    -0.11800
C769        C  0.23331499  0.91904964  0.55395369    -0.01600
C770        C  0.26969446  0.92885348  0.53911685    -0.10700
C771        C  0.28518606  0.01725140  0.99097951     0.05700
H772        H  0.21694860  0.99227610  0.52460599     0.07600
H773        H  0.18668173  0.93565598  0.55961451     0.11100
H774        H  0.28467064  0.91127491  0.54278461     0.11400
H775        H  0.31450397  0.96751703  0.00745683     0.07700
C776        C  0.32726524  0.04452052  0.98965498    -0.11400
C777        C  0.34314571  0.07636344  0.96905656    -0.10700
C778        C  0.31723102  0.08132047  0.94927511    -0.01600
C779        C  0.27524477  0.05348089  0.95031260    -0.11800
C780        C  0.25942989  0.02186859  0.97093393    -0.10200
H781        H  0.34777154  0.04176616  0.00499402     0.07700
H782        H  0.37561118  0.09734100  0.96887278     0.11400
H783        H  0.25437911  0.05639896  0.93545109     0.11100
H784        H  0.22696049  0.00088477  0.97112427     0.07700
C785        C  0.26607948  0.00826857  0.79080242    -0.11400
C786        C  0.28198227  0.01370022  0.76187195     0.05700
C787        C  0.31438912  0.05187652  0.75371507    -0.10200
C788        C  0.33034290  0.08412381  0.77394170    -0.11800
C789        C  0.31383795  0.07910361  0.80269367    -0.01600
C790        C  0.28159306  0.04072164  0.81092187    -0.10700
C791        C  0.26430724  0.97986847  0.74006709     0.05700
H792        H  0.32741700  0.05673368  0.73164078     0.07600
H793        H  0.35511302  0.11325662  0.76681315     0.11100
H794        H  0.26820242  0.03579605  0.83286892     0.11400
H795        H  0.24096599  0.97914529  0.79759005     0.07700
C796        C  0.25782323  0.94128828  0.74783875    -0.11400
C797        C  0.24078676  0.90929855  0.72740513    -0.10700
C798        C  0.22919591  0.91494558  0.69883928    -0.01600
C799        C  0.23568719  0.95364533  0.69109701    -0.11800
C800        C  0.25337507  0.98583975  0.71141903    -0.10200
H801        H  0.26622556  0.93596638  0.76970525     0.07700
H802        H  0.23614372  0.87991531  0.73418215     0.11400
H803        H  0.22713981  0.95907960  0.66932459     0.11100
H804        H  0.25783294  0.01527144  0.70496401     0.07700
C805        C  0.01952755  0.75999887  0.72238085    -0.11400
C806        C  0.01056954  0.72455183  0.73813982     0.05700
C807        C  0.03375243  0.70570250  0.73264235    -0.10200
C808        C  0.06595636  0.72265395  0.71230860    -0.11800
C809        C  0.07519687  0.75845937  0.69682287    -0.01600
C810        C  0.05134162  0.77667171  0.70187708    -0.10700
C811        C  0.97738858  0.70784581  0.76046023     0.05700
H812        H  0.02759145  0.67844627  0.74459448     0.07600
H813        H  0.08381113  0.70791761  0.70889511     0.11100
H814        H  0.05776320  0.80434883  0.69043430     0.11400
H815        H  0.00179507  0.77484116  0.72588854     0.07700
C816        C  0.97317762  0.73397974  0.78037446    -0.11400
C817        C  0.94099249  0.71882871  0.80060852    -0.10700
C818        C  0.91209901  0.67716975  0.80132408    -0.01600
C819        C  0.91673763  0.65088308  0.78171328    -0.11800
C820        C  0.94916835  0.66606509  0.76157940    -0.10200
H821        H  0.99483431  0.76625025  0.78026713     0.07700
H822        H  0.93842488  0.73994337  0.81537743     0.11400
H823        H  0.89504999  0.61862890  0.78166497     0.11100
H824        H  0.95157450  0.64528849  0.74634825     0.07700
C825        C  0.98373122  0.73161302  0.95962162    -0.11400
C826        C  0.97979006  0.71353697  0.98763917     0.05700
C827        C  0.94274148  0.67889451  0.99504520    -0.10200
C828        C  0.91027047  0.66281057  0.97500312    -0.11800
C829        C  0.91395397  0.68115763  0.94710630    -0.01600
C830        C  0.95109534  0.71574150  0.93964129    -0.10700
C831        C  0.01397715  0.73101469  0.50924863     0.05700
H832        H  0.93893990  0.66405422  0.51633294     0.07600
H833        H  0.88205715  0.63626609  0.98157015     0.11100
H834        H  0.95491939  0.73067151  0.91839258     0.11400
H835        H  0.01180223  0.75856232  0.95340764     0.07700
C836        C  0.05399918  0.74427678  0.49987545    -0.11400
C837        C  0.08611029  0.76067129  0.52027013    -0.10700
C838        C  0.07898366  0.76468559  0.55043270    -0.01600
C839        C  0.03900666  0.75165847  0.55977285    -0.11800
C840        C  0.00681563  0.73472259  0.53944937    -0.10200
H841        H  0.06041334  0.74155369  0.97679858     0.07700
H842        H  0.11664088  0.77077435  0.51233843     0.11400
H843        H  0.03258633  0.75441641  0.58284207     0.11100
H844        H  0.97635718  0.72516577  0.54726643     0.07700
C845        C  0.16973461  0.54787208  0.65013432    -0.11400
C846        C  0.16154438  0.56124030  0.62315091     0.05700
C847        C  0.15594219  0.53806181  0.59737234    -0.10200
C848        C  0.15990091  0.50338091  0.59831510    -0.11800
C849        C  0.16889990  0.49058350  0.62515358    -0.01600
C850        C  0.17311474  0.51282725  0.65114483    -0.10700
C851        C  0.16101160  0.60024238  0.62159781     0.05700
H852        H  0.14882286  0.54689020  0.57632329     0.07600
H853        H  0.15631046  0.48677709  0.57792528     0.11100
H854        H  0.18063619  0.50406423  0.67208351     0.11400
H855        H  0.17499221  0.56524575  0.67033872     0.07700
C856        C  0.14627329  0.61319806  0.64545701    -0.11400
C857        C  0.14935903  0.65151008  0.64495908    -0.10700
C858        C  0.16664134  0.67743791  0.62040505    -0.01600
C859        C  0.17950407  0.66379120  0.59596429    -0.11800
C860        C  0.17709604  0.62584815  0.59666092    -0.10200
H861        H  0.13290638  0.59400316  0.66474331     0.07700
H862        H  0.13893729  0.66120064  0.66402326     0.11400
H863        H  0.19344447  0.68334983  0.57690900     0.11100
H864        H  0.18942302  0.61737081  0.57809417     0.07700
C865        C  0.73197073  0.97584993  0.72015899    -0.11400
C866        C  0.70590728  0.97871634  0.74097939     0.05700
C867        C  0.66413703  0.95036252  0.73983457    -0.10200
C868        C  0.64889323  0.91911581  0.71883245    -0.11800
C869        C  0.67506025  0.91564511  0.69838722    -0.01600
C870        C  0.71672560  0.94472991  0.69904916    -0.10700
C871        C  0.72237672  0.01096229  0.76397733     0.05700
H872        H  0.64338522  0.95171961  0.75569852     0.07600
H873        H  0.61664587  0.89725241  0.71897421     0.11100
H874        H  0.73773685  0.94304163  0.68362156     0.11400
H875        H  0.76422290  0.99772332  0.72021767     0.07700
C876        C  0.75855804  0.02057605  0.77901131    -0.11400
C877        C  0.77499446  0.05195422  0.79987830    -0.10700
C878        C  0.75584035  0.07470510  0.80588053    -0.01600
C879        C  0.71911116  0.06444428  0.79140034    -0.11800
C880        C  0.70241026  0.03271392  0.77079064    -0.10200
H881        H  0.77424378  0.00388105  0.77453208     0.07700
H882        H  0.80341587  0.05926033  0.81058843     0.11400
H883        H  0.70362025  0.08139146  0.79564984     0.11100
H884        H  0.67453927  0.02602250  0.75949212     0.07700
C885        C  0.72607167  0.98805174  0.54179709    -0.11400
C886        C  0.71052834  0.98319257  0.51281377     0.05700
C887        C  0.67844821  0.94518446  0.50408802    -0.10200
C888        C  0.66221381  0.91253842  0.52393925    -0.11800
C889        C  0.67823307  0.91704833  0.55279000    -0.01600
C890        C  0.71031765  0.95516798  0.56153497    -0.10700
C891        C  0.72820221  0.01745000  0.99147858     0.05700
H892        H  0.66585509  0.94081537  0.98189333     0.07600
H893        H  0.63764486  0.88351575  0.51646130     0.11100
H894        H  0.72326201  0.95956257  0.58360749     0.11400
H895        H  0.75099013  0.01707402  0.54892203     0.07700
C896        C  0.73322584  0.05544162  0.99933036    -0.11400
C897        C  0.74996832  0.08775749  0.97908278    -0.10700
C898        C  0.76265798  0.08287123  0.95074372    -0.01600
C899        C  0.75763872  0.04474159  0.94302184    -0.11800
C900        C  0.74029684  0.01230346  0.96308946    -0.10200
H901        H  0.72387096  0.05999266  0.52106532     0.07700
H902        H  0.75355050  0.11673607  0.98579224     0.11400
H903        H  0.76708064  0.03991576  0.92141328     0.11100
H904        H  0.73693081  0.98331437  0.95662869     0.07700
C905        C  0.70585798  0.66766746  0.98450780    -0.11400
C906        C  0.72415413  0.70977665  0.98908425     0.05700
C907        C  0.75871645  0.73602777  0.97241547    -0.10200
C908        C  0.77502021  0.72054566  0.95185732    -0.11800
C909        C  0.75739540  0.67840237  0.94773658    -0.01600
C910        C  0.72249128  0.65209767  0.96417310    -0.10700
C911        C  0.70760731  0.72648604  0.51131370     0.05700
H912        H  0.77309287  0.76863088  0.97523459     0.07600
H913        H  0.80200849  0.74162152  0.93964368     0.11100
H914        H  0.70819694  0.61948750  0.96145484     0.11400
H915        H  0.67926468  0.64677280  0.49717033     0.07700
C916        C  0.66565690  0.71217908  0.51290475    -0.11400
C917        C  0.65033916  0.72912664  0.53312202    -0.10700
C918        C  0.67662519  0.76046620  0.55239142    -0.01600
C919        C  0.71853905  0.77418327  0.55114906    -0.11800
C920        C  0.73385566  0.75746701  0.53075420    -0.10200
H921        H  0.64481149  0.68854644  0.49801284     0.07700
H922        H  0.61790048  0.71790617  0.53344928     0.11400
H923        H  0.73964155  0.79835083  0.56557491     0.11100
H924        H  0.76630226  0.76873574  0.03019492     0.07700
C925        C  0.66971722  0.72895306  0.74703848    -0.11400
C926        C  0.70387674  0.72539909  0.74018133     0.05700
C927        C  0.72266545  0.73886299  0.71232893    -0.10200
C928        C  0.70796955  0.75617045  0.69187246    -0.11800
C929        C  0.67385038  0.75989851  0.69870936    -0.01600
C930        C  0.65467843  0.74577955  0.72644679    -0.10700
C931        C  0.72029870  0.70807255  0.76201284     0.05700
H932        H  0.74927747  0.73674380  0.70662667     0.07600
H933        H  0.72344932  0.76679250  0.67075835     0.11100
H934        H  0.62844020  0.74837712  0.73248888     0.11400
H935        H  0.65453663  0.71851024  0.76827797     0.07700
C936        C  0.72680692  0.72115893  0.79176063    -0.11400
C937        C  0.74475800  0.70651221  0.81179400    -0.10700
C938        C  0.75571586  0.67795359  0.80251949    -0.01600
C939        C  0.74801931  0.66405038  0.77299051    -0.11800
C940        C  0.73079555  0.67917906  0.75291617    -0.10200
H941        H  0.71907605  0.74355410  0.79926079     0.07700
H942        H  0.75015600  0.71755905  0.83446654     0.11400
H943        H  0.75624201  0.64213985  0.76517221     0.11100
H944        H  0.72571826  0.66833188  0.73019117     0.07700
C945        C  0.46021960  0.84849624  0.65033215    -0.11400
C946        C  0.43587906  0.84140694  0.62499210     0.05700
C947        C  0.44782694  0.83146728  0.59810915    -0.10200
C948        C  0.48214755  0.82690239  0.59694989    -0.11800
C949        C  0.50494431  0.83159556  0.62273538    -0.01600
C950        C  0.49421590  0.84343575  0.64925289    -0.10700
C951        C  0.39666428  0.84130480  0.62701650     0.05700
H952        H  0.42959532  0.82521983  0.57822626     0.07600
H953        H  0.48954560  0.81762242  0.57621160     0.11100
H954        H  0.51150617  0.84777957  0.66942778     0.11400
H955        H  0.45254374  0.85713918  0.67121641     0.07700
C956        C  0.37214587  0.82606302  0.65255464    -0.11400
C957        C  0.33334029  0.82165826  0.65329187    -0.10700
C958        C  0.31788532  0.83166396  0.62833411    -0.01600
C959        C  0.34285746  0.84845805  0.60327805    -0.11800
C960        C  0.38197902  0.85358637  0.60273048    -0.10200
H961        H  0.38205165  0.81566422  0.67151110     0.07700
H962        H  0.31459589  0.80832226  0.67280978     0.11400
H963        H  0.33180036  0.85684215  0.58384981     0.11100
H964        H  0.40036109  0.86634329  0.58300001     0.07700
C965        C  0.45872505  0.61293817  0.65033684    -0.11400
C966        C  0.43603310  0.59603275  0.62423287     0.05700
C967        C  0.44904422  0.61862771  0.59775103    -0.10200
C968        C  0.48267937  0.65782775  0.59766287    -0.11800
C969        C  0.50393088  0.67556791  0.62410474    -0.01600
C970        C  0.49212487  0.65234355  0.65031984    -0.10700
C971        C  0.39690370  0.55688773  0.62516673     0.05700
H972        H  0.43208421  0.60689875  0.57732152     0.07600
H973        H  0.49093005  0.67485605  0.57705188     0.11100
H974        H  0.50810219  0.66492899  0.67099768     0.11400
H975        H  0.45010841  0.59605402  0.67100235     0.07700
C976        C  0.38357647  0.53002979  0.60081138    -0.11400
C977        C  0.34457498  0.49574097  0.60065777    -0.10700
C978        C  0.31835192  0.48742563  0.62500849    -0.01600
C979        C  0.33239512  0.51336006  0.64977602    -0.11800
C980        C  0.37098099  0.54770021  0.64978308    -0.10200
H981        H  0.40300250  0.53587726  0.58165533     0.07700
H982        H  0.33470306  0.47622322  0.58129580     0.11400
H983        H  0.31290986  0.50813116  0.66880999     0.11100
H984        H  0.37970009  0.56801176  0.66864834     0.07700
loop_ 
_geom_bond_atom_site_label_1 
_geom_bond_atom_site_label_2 
_geom_bond_distance 
_geom_bond_site_symmetry_2 
_ccdc_geom_bond_type 
Fe1          O17   2.070       .  S
Fe1           O7   2.071       .  S
Fe1          O14   2.070       .  S
Fe1           O6   2.068       .  S
Fe1          O12   1.978       .  S
Fe2           O5   2.067       .  S
Fe2           O9   2.059       .  S
Fe2          O13   2.058       .  S
Fe2          O18   2.057       .  S
Fe2          O12   1.975       .  S
Fe3          O21   2.059       .  S
Fe3           O8   2.064       .  S
Fe3          O15   2.057       .  S
Fe3           O4   2.060       .  S
Fe3          O12   1.979       .  S
O4           C11   1.269       .  A
O5           C19   1.270       .  A
O6           C11   1.270       .  A
O7           C10   1.270       .  A
O8           C20   1.269       .  A
O9           C22   1.268       .  A
C10          O15   1.267       .  A
C10         C426   1.482       .  S
C11         C397   1.480       .  S
O13          C16   1.268       .  A
O14          C16   1.270       .  A
C16         C377   1.483       .  S
O17          C22   1.271       .  A
O18          C20   1.268       .  A
C19          O21   1.268       .  A
C19         C477   1.482       .  S
C20         C457   1.479       .  S
C22         C437   1.482       .  S
Fe23         O39   2.073       .  S
Fe23         O29   2.070       .  S
Fe23         O36   2.069       .  S
Fe23         O28   2.069       .  S
Fe23         O34   1.972       .  S
Fe24         O27   2.060       .  S
Fe24         O31   2.076       .  S
Fe24         O35   2.054       .  S
Fe24         O40   2.070       .  S
Fe24         O34   1.970       .  S
Fe25         O43   2.064       .  S
Fe25         O30   2.065       .  S
Fe25         O37   2.047       .  S
Fe25         O26   2.075       .  S
Fe25         O34   1.971       .  S
O26          C33   1.272       .  A
O27          C41   1.268       .  A
O28          C33   1.272       .  A
O29          C32   1.269       .  A
O30          C42   1.270       .  A
O31          C44   1.272       .  A
C32          O37   1.266       .  A
C32         C277   1.476       .  S
C33         C346   1.482       .  S
O35          C38   1.266       .  A
O36          C38   1.269       .  A
C38         C317   1.479       .  S
O39          C44   1.272       .  A
O40          C42   1.270       .  A
C41          O43   1.269       .  A
C41         C466   1.476       .  S
C42         C366   1.479       .  S
C44         C306   1.488       .  S
Fe45         O61   2.061       .  S
Fe45         O51   2.070       .  S
Fe45         O58   2.073       .  S
Fe45         O50   2.059       .  S
Fe45         O56   1.970       .  S
Fe46         O49   2.066       .  S
Fe46         O53   2.062       .  S
Fe46         O57   2.054       .  S
Fe46         O62   2.069       .  S
Fe46         O56   1.967       .  S
Fe47         O65   2.064       .  S
Fe47         O52   2.065       .  S
Fe47         O59   2.058       .  S
Fe47         O48   2.073       .  S
Fe47         O56   1.965       .  S
O48          C55   1.271       .  A
O49          C63   1.270       .  A
O50          C55   1.269       .  A
O51          C54   1.270       .  A
O52          C64   1.270       .  A
O53          C66   1.269       .  A
C54          O59   1.269       .  A
C54         C246   1.480       .  S
C55         C226   1.483       .  S
O57          C60   1.269       .  A
O58          C60   1.271       .  A
C60         C206   1.480       .  S
O61          C66   1.268       .  A
O62          C64   1.270       .  A
C63          O65   1.270       .  A
C63         C486   1.481       .  S
C64         C357   1.482       .  S
C66         C266   1.476       .  S
Fe67         O83   2.071       .  S
Fe67         O73   2.066       .  S
Fe67         O80   2.073       .  S
Fe67         O72   2.069       .  S
Fe67         O78   1.976       .  S
Fe68         O71   2.066       .  S
Fe68         O75   2.057       .  S
Fe68         O79   2.060       .  S
Fe68         O84   2.062       .  S
Fe68         O78   1.976       .  S
Fe69         O87   2.060       .  S
Fe69         O74   2.072       .  S
Fe69         O81   2.064       .  S
Fe69         O70   2.065       .  S
Fe69         O78   1.976       .  S
O70          C77   1.269       .  A
O71          C85   1.269       .  A
O72          C77   1.270       .  A
O73          C76   1.270       .  A
O74          C86   1.271       .  A
O75          C88   1.267       .  A
C76          O81   1.269       .  A
C76         C417   1.481       .  S
C77         C337   1.484       .  S
O79          C82   1.269       .  A
O80          C82   1.271       .  A
C82         C326   1.484       .  S
O83          C88   1.270       .  A
O84          C86   1.268       .  A
C85          O87   1.268       .  A
C85         C157   1.481       .  S
C86         C177   1.484       .  S
C88         C446   1.478       .  S
Fe89        O105   2.065       .  S
Fe89         O95   2.068       .  S
Fe89        O102   2.065       .  S
Fe89         O94   2.064       .  S
Fe89        O100   1.978       .  S
Fe90         O93   2.064       .  S
Fe90         O97   2.078       .  S
Fe90        O101   2.058       .  S
Fe90        O106   2.068       .  S
Fe90        O100   1.978       .  S
Fe91        O109   2.065       .  S
Fe91         O96   2.067       .  S
Fe91        O103   2.055       .  S
Fe91         O92   2.073       .  S
Fe91        O100   1.979       .  S
O92          C99   1.271       .  A
O93         C107   1.269       .  A
O94          C99   1.270       .  A
O95          C98   1.269       .  A
O96         C108   1.270       .  A
O97         C110   1.272       .  A
C98         O103   1.267       .  A
C98         C386   1.478       .  S
C99         C217   1.481       .  S
O101        C104   1.267       .  A
O102        C104   1.268       .  A
C104        C197   1.480       .  S
O105        C110   1.270       .  A
O106        C108   1.270       .  A
C107        O109   1.269       .  A
C107        C137   1.479       .  S
C108        C186   1.483       .  S
C110        C406   1.485       .  S
Fe111       O127   2.065       .  S
Fe111       O117   2.065       .  S
Fe111       O124   2.061       .  S
Fe111       O116   2.070       .  S
Fe111       O122   1.971       .  S
Fe112       O115   2.065       .  S
Fe112       O119   2.055       .  S
Fe112       O123   2.062       .  S
Fe112       O128   2.060       .  S
Fe112       O122   1.972       .  S
Fe113       O131   2.061       .  S
Fe113       O118   2.064       .  S
Fe113       O125   2.059       .  S
Fe113       O114   2.070       .  S
Fe113       O122   1.971       .  S
O114        C121   1.270       .  A
O115        C129   1.269       .  A
O116        C121   1.270       .  A
O117        C120   1.269       .  A
O118        C130   1.270       .  A
O119        C132   1.267       .  A
C120        O125   1.269       .  A
C120        C237   1.479       .  S
C121        C297   1.486       .  S
O123        C126   1.269       .  A
O124        C126   1.269       .  A
C126        C286   1.480       .  S
O127        C132   1.269       .  A
O128        C130   1.269       .  A
C129        O131   1.268       .  A
C129        C166   1.481       .  S
C130        C146   1.478       .  S
C132        C257   1.478       .  S
C133        C134   1.407       .  A
C133        C138   1.399       .  A
C133        H143   1.082       .  S
C134        C139   1.489       .  S
C134        C135   1.408       .  A
C135        C136   1.397       .  A
C135        H140   1.082       .  S
C136        C137   1.404       .  A
C136        H141   1.083       .  S
C137        C138   1.405       .  A
C138        H142   1.083       .  S
C139        C144   1.408       .  A
C139        C148   1.406       .  A
C144        C145   1.398       .  A
C144        H149   1.082       .  S
C145        C146   1.404       .  A
C145        H150   1.083       .  S
C146        C147   1.405       .  A
C147        C148   1.396       .  A
C147        H151   1.083       .  S
C148        H152   1.082       .  S
C153        C154   1.406       .  A
C153        C158   1.395       .  A
C153        H163   1.082       .  S
C154        C159   1.489       .  S
C154        C155   1.408       .  A
C155        C156   1.399       .  A
C155        H160   1.082       .  S
C156        C157   1.405       .  A
C156        H161   1.083       .  S
C157        C158   1.406       .  A
C158        H162   1.083       .  S
C159        C164   1.406       .  A
C159        C168   1.408       .  A
C164        C165   1.394       .  A
C164        H169   1.082       .  S
C165        C166   1.406       .  A
C165        H170   1.083       .  S
C166        C167   1.405       .  A
C167        C168   1.399       .  A
C167        H171   1.083       .  S
C168        H172   1.082       .  S
C173        C174   1.408       .  A
C173        C178   1.400       .  A
C173        H183   1.082       .  S
C174        C179   1.496       .  S
C174        C175   1.410       .  A
C175        C176   1.398       .  A
C175        H180   1.082       .  S
C176        C177   1.403       .  A
C176        H181   1.083       .  S
C177        C178   1.407       .  A
C178        H182   1.083       .  S
C179        C184   1.410       .  A
C179        C188   1.408       .  A
C184        C185   1.400       .  A
C184        H189   1.082       .  S
C185        C186   1.405       .  A
C185        H190   1.083       .  S
C186        C187   1.404       .  A
C187        C188   1.398       .  A
C187        H191   1.083       .  S
C188        H192   1.082       .  S
C193        C194   1.404       .  A
C193        C198   1.396       .  A
C193        H203   1.083       .  S
C194        C691   1.479   1_655  S
C194        C195   1.404       .  A
C195        C196   1.398       .  A
C195        H692   1.083       .  S
C196        C197   1.407       .  A
C196        H201   1.083       .  S
C197        C198   1.406       .  A
C198        H202   1.083       .  S
C199        C686   1.479   1_454  S
C199        C204   1.404       .  A
C199        C208   1.403       .  A
H200        C687   1.083       .  S
C204        C205   1.396       .  A
C204        H701   1.083   1_455  S
C205        C206   1.406       .  A
C205        H210   1.083       .  S
C206        C207   1.407       .  A
C207        C208   1.397       .  A
C207        H211   1.083       .  S
C208        H212   1.083   1_554  S
H209        C696   1.083   1_655  S
C213        C214   1.405       .  A
C213        C218   1.398       .  A
C213        H223   1.083   1_655  S
C214        C219   1.483   1_655  S
C214        C215   1.404       .  A
C215        C216   1.399       .  A
C215        H220   1.083       .  S
C216        C217   1.406       .  A
C216        H221   1.083       .  S
C217        C218   1.405       .  A
C218        H222   1.083       .  S
C219        C224   1.404       .  A
C219        C228   1.405       .  A
C224        C225   1.397       .  A
C224        H229   1.083       .  S
C225        C226   1.407       .  A
C225        H230   1.083       .  S
C226        C227   1.407       .  A
C227        C228   1.399       .  A
C227        H231   1.083       .  S
C228        H232   1.083   1_455  S
C233        C234   1.404       .  A
C233        C238   1.397       .  A
C233        H243   1.083       .  S
C234        C239   1.479       .  S
C234        C235   1.404       .  A
C235        C236   1.396       .  A
C235        H240   1.083       .  S
C236        C237   1.406       .  A
C236        H241   1.083       .  S
C237        C238   1.406       .  A
C238        H242   1.083       .  S
C239        C244   1.404       .  A
C239        C248   1.404       .  A
C244        C245   1.397       .  A
C244        H249   1.083       .  S
C245        C246   1.406       .  A
C245        H250   1.083       .  S
C246        C247   1.406       .  A
C247        C248   1.396       .  A
C247        H251   1.083       .  S
C248        H252   1.083       .  S
C253        C254   1.400       .  A
C253        C258   1.394       .  A
C253        H755   1.084       .  S
C254        C751   1.472       .  S
C254        C255   1.404       .  A
C255        C256   1.397       .  A
C255        H260   1.083       .  S
C256        C257   1.405       .  A
C256        H261   1.083       .  S
C257        C258   1.408       .  A
C258        H262   1.083       .  S
C259        C746   1.472   1_554  S
C259        C264   1.404       .  A
C259        C268   1.400       .  A
H263        C745   1.084   1_554  S
C264        C265   1.398       .  A
C264        H269   1.083       .  S
C265        C266   1.406       .  A
C265        H270   1.083       .  S
C266        C267   1.406       .  A
C267        C268   1.393       .  A
C267        H271   1.083       .  S
C268        H764   1.084   1_554  S
H272        C760   1.084       .  S
C273        C274   1.403       .  A
C273        C278   1.395       .  A
C273        H775   1.083       .  S
C274        C771   1.480   1_564  S
C274        C275   1.405       .  A
C275        C276   1.395       .  A
C275        H280   1.083       .  S
C276        C277   1.404       .  A
C276        H281   1.083       .  S
C277        C278   1.406       .  A
C278        H282   1.083       .  S
C279        C766   1.480   1_545  S
C279        C284   1.405       .  A
C279        C288   1.403       .  A
H283        C765   1.083       .  S
C284        C285   1.398       .  A
C284        H289   1.083       .  S
C285        C286   1.406       .  A
C285        H290   1.083       .  S
C286        C287   1.406       .  A
C287        C288   1.393       .  A
C287        H291   1.083       .  S
C288        H292   1.083       .  S
C293        C294   1.406       .  A
C293        C298   1.401       .  A
C293        H303   1.083   1_545  S
C294        C299   1.485   1_545  S
C294        C295   1.403       .  A
C295        C296   1.399       .  A
C295        H300   1.083       .  S
C296        C297   1.408       .  A
C296        H301   1.083       .  S
C297        C298   1.407       .  A
C298        H302   1.083       .  S
C299        C304   1.403       .  A
C299        C308   1.406       .  A
C304        C305   1.399       .  A
C304        H309   1.083       .  S
C305        C306   1.408       .  A
C305        H310   1.083       .  S
C306        C307   1.407       .  A
C307        C308   1.402       .  A
C307        H311   1.083       .  S
C308        H312   1.083   1_565  S
C313        C314   1.404       .  A
C313        C318   1.395       .  A
C313        H323   1.083       .  S
C314        C319   1.483   1_455  S
C314        C315   1.405       .  A
C315        C316   1.400       .  A
C315        H320   1.083       .  S
C316        C317   1.407       .  A
C316        H321   1.083       .  S
C317        C318   1.405       .  A
C318        H322   1.083       .  S
C319        C324   1.405       .  A
C319        C328   1.404       .  A
C324        C325   1.396       .  A
C324        H329   1.083       .  S
C325        C326   1.406       .  A
C325        H330   1.083       .  S
C326        C327   1.408       .  A
C327        C328   1.399       .  A
C327        H331   1.083       .  S
C328        H332   1.083       .  S
C333        C334   1.406       .  A
C333        C338   1.400       .  A
C333        H343   1.083   1_655  S
C334        C831   1.486   1_655  S
C334        C335   1.404       .  A
C335        C336   1.398       .  A
C335        H832   1.083       .  S
C336        C337   1.407       .  A
C336        H341   1.083       .  S
C337        C338   1.406       .  A
C338        H342   1.083       .  S
C339        C826   1.486   1_454  S
C339        C344   1.405   1_554  A
C339        C348   1.407       .  A
H340        C827   1.083   1_554  S
C344        C345   1.399   1_556  A
C344        H841   1.083       .  S
C345        C346   1.407       .  A
C345        H350   1.083       .  S
C346        C347   1.405       .  A
C347        C348   1.399       .  A
C347        H351   1.083       .  S
C348        H352   1.083   1_455  S
H349        C836   1.083       .  S
C353        C354   1.408       .  A
C353        C358   1.400       .  A
C353        H363   1.082       .  S
C354        C359   1.493       .  S
C354        C355   1.407       .  A
C355        C356   1.398       .  A
C355        H360   1.082       .  S
C356        C357   1.405       .  A
C356        H361   1.083       .  S
C357        C358   1.405       .  A
C358        H362   1.083       .  S
C359        C364   1.408       .  A
C359        C368   1.408       .  A
C364        C365   1.400       .  A
C364        H369   1.082       .  S
C365        C366   1.405       .  A
C365        H370   1.083       .  S
C366        C367   1.403       .  A
C367        C368   1.398       .  A
C367        H371   1.083       .  S
C368        H372   1.082       .  S
C373        C374   1.405       .  A
C373        C378   1.398       .  A
C373        H383   1.083       .  S
C374        C379   1.483   1_565  S
C374        C375   1.404       .  A
C375        C376   1.397       .  A
C375        H380   1.083       .  S
C376        C377   1.407       .  A
C376        H381   1.083       .  S
C377        C378   1.406       .  A
C378        H382   1.083       .  S
C379        C384   1.405       .  A
C379        C388   1.405       .  A
C384        C385   1.397       .  A
C384        H389   1.083       .  S
C385        C386   1.405       .  A
C385        H390   1.083       .  S
C386        C387   1.406       .  A
C387        C388   1.398       .  A
C387        H391   1.083       .  S
C388        H392   1.083       .  S
C393        C394   1.405       .  A
C393        C398   1.399       .  A
C393        H403   1.083   1_565  S
C394        C891   1.480   1_564  S
C394        C395   1.403       .  A
C395        C396   1.396       .  A
C395        H892   1.083   1_554  S
C396        C397   1.407       .  A
C396        H401   1.083       .  S
C397        C398   1.405       .  A
C398        H402   1.083       .  S
C399        C886   1.480   1_545  S
C399        C404   1.403       .  A
C399        C408   1.404       .  A
H400        C887   1.083       .  S
C404        C405   1.400       .  A
C404        H901   1.083       .  S
C405        C406   1.408       .  A
C405        H410   1.083       .  S
C406        C407   1.407       .  A
C407        C408   1.398       .  A
C407        H411   1.083       .  S
C408        H412   1.083   1_545  S
H409        C896   1.083   1_554  S
C413        C414   1.405       .  A
C413        C418   1.399       .  A
C413        H915   1.083       .  S
C414        C911   1.482       .  S
C414        C415   1.404       .  A
C415        C416   1.396       .  A
C415        H420   1.083       .  S
C416        C417   1.406       .  A
C416        H421   1.083       .  S
C417        C418   1.406       .  A
C418        H422   1.083       .  S
C419        C906   1.482   1_554  S
C419        C424   1.404       .  A
C419        C428   1.405       .  A
H423        C905   1.083       .  S
C424        C425   1.398       .  A
C424        H429   1.083   1_554  S
C425        C426   1.407       .  A
C425        H430   1.083       .  S
C426        C427   1.406       .  A
C427        C428   1.397       .  A
C427        H431   1.083       .  S
C428        H924   1.083       .  S
H432        C920   1.083       .  S
C433        C434   1.403       .  A
C433        C438   1.398       .  A
C433        H443   1.083       .  S
C434        C439   1.481       .  S
C434        C435   1.405       .  A
C435        C436   1.397       .  A
C435        H440   1.083       .  S
C436        C437   1.405       .  A
C436        H441   1.083       .  S
C437        C438   1.408       .  A
C438        H442   1.083       .  S
C439        C444   1.406       .  A
C439        C448   1.402       .  A
C444        C445   1.400       .  A
C444        H449   1.083       .  S
C445        C446   1.405       .  A
C445        H450   1.083       .  S
C446        C447   1.406       .  A
C447        C448   1.395       .  A
C447        H451   1.083       .  S
C448        H452   1.083       .  S
C453        C454   1.406       .  A
C453        C458   1.396       .  A
C453        H463   1.082       .  S
C454        C459   1.488       .  S
C454        C455   1.408       .  A
C455        C456   1.397       .  A
C455        H460   1.082       .  S
C456        C457   1.404       .  A
C456        H461   1.083       .  S
C457        C458   1.405       .  A
C458        H462   1.083       .  S
C459        C464   1.408       .  A
C459        C468   1.407       .  A
C464        C465   1.397       .  A
C464        H469   1.082       .  S
C465        C466   1.403       .  A
C465        H470   1.083       .  S
C466        C467   1.404       .  A
C467        C468   1.397       .  A
C467        H471   1.083       .  S
C468        H472   1.082       .  S
C473        C474   1.408       .  A
C473        C478   1.398       .  A
C473        H483   1.083       .  S
C474        C479   1.488       .  S
C474        C475   1.405       .  A
C475        C476   1.396       .  A
C475        H480   1.082       .  S
C476        C477   1.407       .  A
C476        H481   1.083       .  S
C477        C478   1.405       .  A
C478        H482   1.083       .  S
C479        C484   1.409       .  A
C479        C488   1.405       .  A
C484        C485   1.401       .  A
C484        H489   1.083       .  S
C485        C486   1.406       .  A
C485        H490   1.083       .  S
C486        C487   1.405       .  A
C487        C488   1.393       .  A
C487        H491   1.083       .  S
C488        H492   1.082       .  S
Fe493       O509   2.070       .  S
Fe493       O499   2.071       .  S
Fe493       O506   2.070       .  S
Fe493       O498   2.068       .  S
Fe493       O504   1.978       .  S
Fe494       O497   2.067       .  S
Fe494       O501   2.059       .  S
Fe494       O505   2.058       .  S
Fe494       O510   2.057       .  S
Fe494       O504   1.975       .  S
Fe495       O513   2.059       .  S
Fe495       O500   2.064       .  S
Fe495       O507   2.057       .  S
Fe495       O496   2.060       .  S
Fe495       O504   1.979       .  S
O496        C503   1.269       .  A
O497        C511   1.270       .  A
O498        C503   1.270       .  A
O499        C502   1.270       .  A
O500        C512   1.269       .  A
O501        C514   1.268       .  A
C502        O507   1.267       .  A
C502        C918   1.482       .  S
C503        C889   1.480       .  S
O505        C508   1.268       .  A
O506        C508   1.270       .  A
C508        C869   1.483       .  S
O509        C514   1.271       .  A
O510        C512   1.268       .  A
C511        O513   1.268       .  A
C511        C969   1.482       .  S
C512        C949   1.479       .  S
C514        C929   1.482       .  S
Fe515       O531   2.073       .  S
Fe515       O521   2.070       .  S
Fe515       O528   2.069       .  S
Fe515       O520   2.069       .  S
Fe515       O526   1.972       .  S
Fe516       O519   2.060       .  S
Fe516       O523   2.076       .  S
Fe516       O527   2.054       .  S
Fe516       O532   2.070       .  S
Fe516       O526   1.970       .  S
Fe517       O535   2.064       .  S
Fe517       O522   2.065       .  S
Fe517       O529   2.047       .  S
Fe517       O518   2.075       .  S
Fe517       O526   1.971       .  S
O518        C525   1.272       .  A
O519        C533   1.268       .  A
O520        C525   1.272       .  A
O521        C524   1.269       .  A
O522        C534   1.270       .  A
O523        C536   1.272       .  A
C524        O529   1.266       .  A
C524        C769   1.476       .  S
C525        C838   1.482       .  S
O527        C530   1.266       .  A
O528        C530   1.269       .  A
C530        C809   1.479       .  S
O531        C536   1.272       .  A
O532        C534   1.270       .  A
C533        O535   1.269       .  A
C533        C958   1.476       .  S
C534        C858   1.479       .  S
C536        C798   1.488       .  S
Fe537       O553   2.061       .  S
Fe537       O543   2.070       .  S
Fe537       O550   2.073       .  S
Fe537       O542   2.059       .  S
Fe537       O548   1.970       .  S
Fe538       O541   2.066       .  S
Fe538       O545   2.062       .  S
Fe538       O549   2.054       .  S
Fe538       O554   2.069       .  S
Fe538       O548   1.967       .  S
Fe539       O557   2.064       .  S
Fe539       O544   2.065       .  S
Fe539       O551   2.058       .  S
Fe539       O540   2.073       .  S
Fe539       O548   1.965       .  S
O540        C547   1.271       .  A
O541        C555   1.270       .  A
O542        C547   1.269       .  A
O543        C546   1.270       .  A
O544        C556   1.270       .  A
O545        C558   1.269       .  A
C546        O551   1.269       .  A
C546        C738   1.480       .  S
C547        C718   1.483       .  S
O549        C552   1.269       .  A
O550        C552   1.271       .  A
C552        C698   1.480       .  S
O553        C558   1.268       .  A
O554        C556   1.270       .  A
C555        O557   1.270       .  A
C555        C978   1.481       .  S
C556        C849   1.482       .  S
C558        C758   1.476       .  S
Fe559       O575   2.071       .  S
Fe559       O565   2.066       .  S
Fe559       O572   2.073       .  S
Fe559       O564   2.069       .  S
Fe559       O570   1.976       .  S
Fe560       O563   2.066       .  S
Fe560       O567   2.057       .  S
Fe560       O571   2.060       .  S
Fe560       O576   2.062       .  S
Fe560       O570   1.976       .  S
Fe561       O579   2.060       .  S
Fe561       O566   2.072       .  S
Fe561       O573   2.064       .  S
Fe561       O562   2.065       .  S
Fe561       O570   1.976       .  S
O562        C569   1.269       .  A
O563        C577   1.269       .  A
O564        C569   1.270       .  A
O565        C568   1.270       .  A
O566        C578   1.271       .  A
O567        C580   1.267       .  A
C568        O573   1.269       .  A
C568        C909   1.481       .  S
C569        C829   1.484       .  S
O571        C574   1.269       .  A
O572        C574   1.271       .  A
C574        C818   1.484       .  S
O575        C580   1.270       .  A
O576        C578   1.268       .  A
C577        O579   1.268       .  A
C577        C649   1.481       .  S
C578        C669   1.484       .  S
C580        C938   1.478       .  S
Fe581       O597   2.065       .  S
Fe581       O587   2.068       .  S
Fe581       O594   2.065       .  S
Fe581       O586   2.064       .  S
Fe581       O592   1.978       .  S
Fe582       O585   2.064       .  S
Fe582       O589   2.078       .  S
Fe582       O593   2.058       .  S
Fe582       O598   2.068       .  S
Fe582       O592   1.978       .  S
Fe583       O601   2.065       .  S
Fe583       O588   2.067       .  S
Fe583       O595   2.055       .  S
Fe583       O584   2.073       .  S
Fe583       O592   1.979       .  S
O584        C591   1.271       .  A
O585        C599   1.269       .  A
O586        C591   1.270       .  A
O587        C590   1.269       .  A
O588        C600   1.270       .  A
O589        C602   1.272       .  A
C590        O595   1.267       .  A
C590        C878   1.478       .  S
C591        C709   1.481       .  S
O593        C596   1.267       .  A
O594        C596   1.268       .  A
C596        C689   1.480       .  S
O597        C602   1.270       .  A
O598        C600   1.270       .  A
C599        O601   1.269       .  A
C599        C629   1.479       .  S
C600        C678   1.483       .  S
C602        C898   1.485       .  S
Fe603       O619   2.065       .  S
Fe603       O609   2.065       .  S
Fe603       O616   2.061       .  S
Fe603       O608   2.070       .  S
Fe603       O614   1.971       .  S
Fe604       O607   2.065       .  S
Fe604       O611   2.055       .  S
Fe604       O615   2.062       .  S
Fe604       O620   2.060       .  S
Fe604       O614   1.972       .  S
Fe605       O623   2.061       .  S
Fe605       O610   2.064       .  S
Fe605       O617   2.059       .  S
Fe605       O606   2.070       .  S
Fe605       O614   1.971       .  S
O606        C613   1.270       .  A
O607        C621   1.269       .  A
O608        C613   1.270       .  A
O609        C612   1.269       .  A
O610        C622   1.270       .  A
O611        C624   1.267       .  A
C612        O617   1.269       .  A
C612        C729   1.479       .  S
C613        C789   1.486       .  S
O615        C618   1.269       .  A
O616        C618   1.269       .  A
C618        C778   1.480       .  S
O619        C624   1.269       .  A
O620        C622   1.269       .  A
C621        O623   1.268       .  A
C621        C658   1.481       .  S
C622        C638   1.478       .  S
C624        C749   1.478       .  S
C625        C626   1.407       .  A
C625        C630   1.399       .  A
C625        H635   1.082       .  S
C626        C631   1.489       .  S
C626        C627   1.408       .  A
C627        C628   1.397       .  A
C627        H632   1.082       .  S
C628        C629   1.404       .  A
C628        H633   1.083       .  S
C629        C630   1.405       .  A
C630        H634   1.083       .  S
C631        C636   1.408       .  A
C631        C640   1.406       .  A
C636        C637   1.398       .  A
C636        H641   1.082       .  S
C637        C638   1.404       .  A
C637        H642   1.083       .  S
C638        C639   1.405       .  A
C639        C640   1.396       .  A
C639        H643   1.083       .  S
C640        H644   1.082       .  S
C645        C646   1.406       .  A
C645        C650   1.395       .  A
C645        H655   1.082       .  S
C646        C651   1.489       .  S
C646        C647   1.408       .  A
C647        C648   1.399       .  A
C647        H652   1.082       .  S
C648        C649   1.405       .  A
C648        H653   1.083       .  S
C649        C650   1.406       .  A
C650        H654   1.083       .  S
C651        C656   1.406       .  A
C651        C660   1.408       .  A
C656        C657   1.394       .  A
C656        H661   1.082       .  S
C657        C658   1.406       .  A
C657        H662   1.083       .  S
C658        C659   1.405       .  A
C659        C660   1.399       .  A
C659        H663   1.083       .  S
C660        H664   1.082       .  S
C665        C666   1.408       .  A
C665        C670   1.400       .  A
C665        H675   1.082       .  S
C666        C671   1.496       .  S
C666        C667   1.410       .  A
C667        C668   1.398       .  A
C667        H672   1.082       .  S
C668        C669   1.403       .  A
C668        H673   1.083       .  S
C669        C670   1.407       .  A
C670        H674   1.083       .  S
C671        C676   1.410       .  A
C671        C680   1.408       .  A
C676        C677   1.400       .  A
C676        H681   1.082       .  S
C677        C678   1.405       .  A
C677        H682   1.083       .  S
C678        C679   1.404       .  A
C679        C680   1.398       .  A
C679        H683   1.083       .  S
C680        H684   1.082       .  S
C685        C686   1.404       .  A
C685        C690   1.396       .  A
C685        H695   1.083       .  S
C686        C687   1.404       .  A
C687        C688   1.398       .  A
C688        C689   1.407       .  A
C688        H693   1.083       .  S
C689        C690   1.406       .  A
C690        H694   1.083       .  S
C691        C696   1.404       .  A
C691        C700   1.403       .  A
C696        C697   1.396       .  A
C697        C698   1.406       .  A
C697        H702   1.083       .  S
C698        C699   1.407       .  A
C699        C700   1.397       .  A
C699        H703   1.083       .  S
C700        H704   1.083       .  S
C705        C706   1.405       .  A
C705        C710   1.398       .  A
C705        H715   1.083   1_655  S
C706        C711   1.483   1_655  S
C706        C707   1.404       .  A
C707        C708   1.399       .  A
C707        H712   1.083       .  S
C708        C709   1.406       .  A
C708        H713   1.083       .  S
C709        C710   1.405       .  A
C710        H714   1.083       .  S
C711        C716   1.404       .  A
C711        C720   1.405       .  A
C716        C717   1.397       .  A
C716        H721   1.083       .  S
C717        C718   1.407       .  A
C717        H722   1.083       .  S
C718        C719   1.407       .  A
C719        C720   1.399       .  A
C719        H723   1.083       .  S
C720        H724   1.083   1_455  S
C725        C726   1.404       .  A
C725        C730   1.397       .  A
C725        H735   1.083       .  S
C726        C731   1.479       .  S
C726        C727   1.404       .  A
C727        C728   1.396       .  A
C727        H732   1.083       .  S
C728        C729   1.406       .  A
C728        H733   1.083       .  S
C729        C730   1.406       .  A
C730        H734   1.083       .  S
C731        C736   1.404       .  A
C731        C740   1.404       .  A
C736        C737   1.397       .  A
C736        H741   1.083       .  S
C737        C738   1.406       .  A
C737        H742   1.083       .  S
C738        C739   1.406       .  A
C739        C740   1.396       .  A
C739        H743   1.083       .  S
C740        H744   1.083       .  S
C745        C746   1.400       .  A
C745        C750   1.394       .  A
C746        C747   1.404       .  A
C747        C748   1.397       .  A
C747        H752   1.083       .  S
C748        C749   1.405       .  A
C748        H753   1.083       .  S
C749        C750   1.408       .  A
C750        H754   1.083       .  S
C751        C756   1.404       .  A
C751        C760   1.400       .  A
C756        C757   1.398       .  A
C756        H761   1.083       .  S
C757        C758   1.406       .  A
C757        H762   1.083       .  S
C758        C759   1.406       .  A
C759        C760   1.393       .  A
C759        H763   1.083       .  S
C765        C766   1.403       .  A
C765        C770   1.395       .  A
C766        C767   1.405       .  A
C767        C768   1.395       .  A
C767        H772   1.083       .  S
C768        C769   1.404       .  A
C768        H773   1.083       .  S
C769        C770   1.406       .  A
C770        H774   1.083       .  S
C771        C776   1.405       .  A
C771        C780   1.403       .  A
C776        C777   1.398       .  A
C776        H781   1.083   1_556  S
C777        C778   1.406       .  A
C777        H782   1.083       .  S
C778        C779   1.406       .  A
C779        C780   1.393       .  A
C779        H783   1.083       .  S
C780        H784   1.083       .  S
C785        C786   1.406       .  A
C785        C790   1.401       .  A
C785        H795   1.083   1_545  S
C786        C791   1.485   1_545  S
C786        C787   1.403       .  A
C787        C788   1.399       .  A
C787        H792   1.083       .  S
C788        C789   1.408       .  A
C788        H793   1.083       .  S
C789        C790   1.407       .  A
C790        H794   1.083       .  S
C791        C796   1.403       .  A
C791        C800   1.406       .  A
C796        C797   1.399       .  A
C796        H801   1.083       .  S
C797        C798   1.408       .  A
C797        H802   1.083       .  S
C798        C799   1.407       .  A
C799        C800   1.402       .  A
C799        H803   1.083       .  S
C800        H804   1.083   1_565  S
C805        C806   1.404       .  A
C805        C810   1.395       .  A
C805        H815   1.083       .  S
C806        C811   1.483   1_455  S
C806        C807   1.405       .  A
C807        C808   1.400       .  A
C807        H812   1.083       .  S
C808        C809   1.407       .  A
C808        H813   1.083       .  S
C809        C810   1.405       .  A
C810        H814   1.083       .  S
C811        C816   1.405       .  A
C811        C820   1.404       .  A
C816        C817   1.396       .  A
C816        H821   1.083       .  S
C817        C818   1.406       .  A
C817        H822   1.083       .  S
C818        C819   1.408       .  A
C819        C820   1.399       .  A
C819        H823   1.083       .  S
C820        H824   1.083       .  S
C825        C826   1.406       .  A
C825        C830   1.400       .  A
C825        H835   1.083   1_655  S
C826        C827   1.404       .  A
C827        C828   1.398       .  A
C828        C829   1.407       .  A
C828        H833   1.083       .  S
C829        C830   1.406       .  A
C830        H834   1.083       .  S
C831        C836   1.405       .  A
C831        C840   1.407       .  A
C836        C837   1.399       .  A
C837        C838   1.407       .  A
C837        H842   1.083       .  S
C838        C839   1.405       .  A
C839        C840   1.399       .  A
C839        H843   1.083       .  S
C840        H844   1.083   1_455  S
C845        C846   1.408       .  A
C845        C850   1.400       .  A
C845        H855   1.082       .  S
C846        C851   1.493       .  S
C846        C847   1.407       .  A
C847        C848   1.398       .  A
C847        H852   1.082       .  S
C848        C849   1.405       .  A
C848        H853   1.083       .  S
C849        C850   1.405       .  A
C850        H854   1.083       .  S
C851        C856   1.408       .  A
C851        C860   1.408       .  A
C856        C857   1.400       .  A
C856        H861   1.082       .  S
C857        C858   1.405       .  A
C857        H862   1.083       .  S
C858        C859   1.403       .  A
C859        C860   1.398       .  A
C859        H863   1.083       .  S
C860        H864   1.082       .  S
C865        C866   1.405       .  A
C865        C870   1.398       .  A
C865        H875   1.083       .  S
C866        C871   1.483   1_565  S
C866        C867   1.404       .  A
C867        C868   1.397       .  A
C867        H872   1.083       .  S
C868        C869   1.407       .  A
C868        H873   1.083       .  S
C869        C870   1.406       .  A
C870        H874   1.083       .  S
C871        C876   1.405       .  A
C871        C880   1.405       .  A
C876        C877   1.397       .  A
C876        H881   1.083       .  S
C877        C878   1.405       .  A
C877        H882   1.083       .  S
C878        C879   1.406       .  A
C879        C880   1.398       .  A
C879        H883   1.083       .  S
C880        H884   1.083       .  S
C885        C886   1.405       .  A
C885        C890   1.399       .  A
C885        H895   1.083   1_565  S
C886        C887   1.403       .  A
C887        C888   1.396       .  A
C888        C889   1.407       .  A
C888        H893   1.083       .  S
C889        C890   1.405       .  A
C890        H894   1.083       .  S
C891        C896   1.403       .  A
C891        C900   1.404       .  A
C896        C897   1.400       .  A
C897        C898   1.408       .  A
C897        H902   1.083       .  S
C898        C899   1.407       .  A
C899        C900   1.398       .  A
C899        H903   1.083       .  S
C900        H904   1.083   1_545  S
C905        C906   1.405       .  A
C905        C910   1.399       .  A
C906        C907   1.404       .  A
C907        C908   1.396       .  A
C907        H912   1.083       .  S
C908        C909   1.406       .  A
C908        H913   1.083       .  S
C909        C910   1.406       .  A
C910        H914   1.083       .  S
C911        C916   1.404       .  A
C911        C920   1.405       .  A
C916        C917   1.398       .  A
C916        H921   1.083       .  S
C917        C918   1.407       .  A
C917        H922   1.083       .  S
C918        C919   1.406       .  A
C919        C920   1.397       .  A
C919        H923   1.083       .  S
C925        C926   1.403       .  A
C925        C930   1.398       .  A
C925        H935   1.083       .  S
C926        C931   1.481       .  S
C926        C927   1.405       .  A
C927        C928   1.397       .  A
C927        H932   1.083       .  S
C928        C929   1.405       .  A
C928        H933   1.083       .  S
C929        C930   1.408       .  A
C930        H934   1.083       .  S
C931        C936   1.406       .  A
C931        C940   1.402       .  A
C936        C937   1.400       .  A
C936        H941   1.083       .  S
C937        C938   1.405       .  A
C937        H942   1.083       .  S
C938        C939   1.406       .  A
C939        C940   1.395       .  A
C939        H943   1.083       .  S
C940        H944   1.083       .  S
C945        C946   1.406       .  A
C945        C950   1.396       .  A
C945        H955   1.082       .  S
C946        C951   1.488       .  S
C946        C947   1.408       .  A
C947        C948   1.397       .  A
C947        H952   1.082       .  S
C948        C949   1.404       .  A
C948        H953   1.083       .  S
C949        C950   1.405       .  A
C950        H954   1.083       .  S
C951        C956   1.408       .  A
C951        C960   1.407       .  A
C956        C957   1.397       .  A
C956        H961   1.082       .  S
C957        C958   1.403       .  A
C957        H962   1.083       .  S
C958        C959   1.404       .  A
C959        C960   1.397       .  A
C959        H963   1.083       .  S
C960        H964   1.082       .  S
C965        C966   1.408       .  A
C965        C970   1.398       .  A
C965        H975   1.083       .  S
C966        C971   1.488       .  S
C966        C967   1.405       .  A
C967        C968   1.396       .  A
C967        H972   1.082       .  S
C968        C969   1.407       .  A
C968        H973   1.083       .  S
C969        C970   1.405       .  A
C970        H974   1.083       .  S
C971        C976   1.409       .  A
C971        C980   1.405       .  A
C976        C977   1.401       .  A
C976        H981   1.083       .  S
C977        C978   1.406       .  A
C977        H982   1.083       .  S
C978        C979   1.405       .  A
C979        C980   1.393       .  A
C979        H983   1.083       .  S
C980        H984   1.082       .  S
