geometry optimzed in LAMMPS
_audit_creation_date              2020-11-30 
_audit_creation_method            'lammps2cif' 
_symmetry_space_group_name_H-M    'P1' 
_symmetry_Int_Tables_number       1 
_symmetry_cell_setting            triclinic 
loop_ 
_symmetry_equiv_pos_as_xyz 
  x,y,z 
_cell_length_a                    35.461156 
_cell_length_b                    35.59460245605502 
_cell_length_c                    31.812877809662538 
_cell_angle_alpha                 90.31266460039951 
_cell_angle_beta                  90.19548506176284 
_cell_angle_gamma                 86.69055165937935 
loop_ 
_atom_site_label 
_atom_site_type_symbol 
_atom_site_fract_x 
_atom_site_fract_y 
_atom_site_fract_z 
_atom_site_charge 
O1          O  0.99029542  0.39522846  0.43566931    -0.74900
O2          O  0.99553868  0.44031700  0.38548346    -0.53800
C3          C  0.49554133  0.40412854  0.39837903     0.78900
O4          O  0.39316834  0.50200148  0.07901671    -0.59500
O5          O  0.44015365  0.50572754  0.12783781    -0.52500
C6          C  0.40536044  0.50332745  0.11725771     0.70900
O7          O  0.39169711  0.00280015  0.43360003    -0.74000
O8          O  0.43845069  0.99765409  0.38429323    -0.54600
C9          C  0.40230196  0.49626856  0.39768930     0.76900
O10         O  0.50104562  0.39651648  0.07897682    -0.59200
O11         O  0.49626379  0.44421817  0.12733009    -0.52300
C12         C  0.49881700  0.40909173  0.11700722     0.73500
Zr13       Zr  0.99794333  0.42168019  0.50586589     2.54700
O14         O  0.44811324  0.37622234  0.51228079    -0.79700
O15         O  0.05369256  0.37900025  0.00237137    -0.93200
Zr16       Zr  0.41819022  0.00232860  0.50460810     2.64700
O17         O  0.36875733  0.45588863  0.50841017    -0.98100
O18         O  0.37396789  0.05807102  0.00736624    -0.80200
O19         O  0.45669292  0.45986236  0.46612546    -0.83500
O20         O  0.45787660  0.46221495  0.04731819    -2.18200
O21         O  0.10161058  0.49337079  0.07395869    -0.66900
O22         O  0.05578209  0.49970549  0.12419197    -0.51500
C23         C  0.09144105  0.99379294  0.11259749     0.71900
O24         O  0.99924494  0.10334526  0.43116910    -0.59800
O25         O  0.99424867  0.05636483  0.38265610    -0.51800
C26         C  0.99691236  0.09111267  0.39304249     0.73700
O27         O  0.49601573  0.10527104  0.07285450    -0.71200
O28         O  0.50058665  0.05936421  0.12292778    -0.49900
C29         C  0.99461604  0.09590307  0.11099474     0.75000
O30         O  0.10148810  0.99883075  0.43202902    -0.66600
O31         O  0.05463415  0.99569868  0.38295387    -0.53700
C32         C  0.08945921  0.99747847  0.39377540     0.73400
Zr33       Zr  0.07472694  0.49729547  0.00337523     2.77500
O34         O  0.12340336  0.04303871  0.50629929    -0.97300
O35         O  0.12171589  0.44468044  0.00028684    -0.78100
Zr36       Zr  0.49887164  0.07736169  0.00248035     2.70100
O37         O  0.04348979  0.12470725  0.00302361    -0.79400
O38         O  0.44218140  0.12515080  0.49981793    -0.98500
Zr39       Zr  0.99660688  0.99865636  0.42348687     2.21500
Zr40       Zr  0.49737269  0.50186816  0.08604691     2.11100
O41         O  0.03703365  0.04025777  0.04401202    -2.47100
O42         O  0.03644928  0.03751213  0.46240730    -0.79200
O43         O  0.03732873  0.45992395  0.04627240    -0.71400
O44         O  0.45579012  0.04027286  0.46241847    -2.32300
O45         O  0.03723691  0.45783469  0.46341696    -2.28500
O46         O  0.45864795  0.04204581  0.04487450    -0.73100
H47         H  0.44310726  0.44758687  0.06579601     0.78900
H48         H  0.44006122  0.05574859  0.44393519     0.80000
H49         H  0.05215336  0.05558990  0.06182187     0.82200
H50         H  0.05270917  0.44150145  0.44528611     0.79800
H51         H  0.34773246  0.04469147  0.51107889     0.42800
H52         H  0.44152554  0.12946525  0.97046059     0.41800
H53         H  0.03565507  0.14426664  0.52119910     0.41500
H54         H  0.12856245  0.05118443  0.03555224     0.39400
H55         H  0.11741380  0.43217656  0.97295779     0.42500
H56         H  0.07006165  0.38496114  0.52132993     0.37300
H57         H  0.46140572  0.35186184  0.51944035     0.43400
H58         H  0.37535151  0.43982835  0.98425027     0.39900
H59         H  0.14040227  0.04328859  0.98884658     0.44800
H60         H  0.05958116  0.37432225  0.47508627     0.43500
H61         H  0.37879180  0.43502199  0.49018779     0.43600
H62         H  0.43255324  0.12440012  0.01813334     0.44000
C63         C  0.49108434  0.28398188  0.27670660     0.02700
C64         C  0.49022504  0.28458527  0.23225732     0.02700
C65         C  0.48888602  0.25035490  0.21031222    -0.17800
C66         C  0.49015590  0.21562862  0.23124517     0.02700
C67         C  0.49322648  0.21478419  0.27555910     0.02700
C68         C  0.49203589  0.24921179  0.29754600    -0.17800
H69         H  0.49287718  0.24896132  0.33163205     0.04700
H70         H  0.48792450  0.25065917  0.17622314     0.04700
C71         C  0.28224810  0.48979881  0.23344188     0.02700
C72         C  0.28123462  0.48965759  0.27779694     0.02700
C73         C  0.24629980  0.49007082  0.29836610    -0.17800
C74         C  0.21206135  0.49151621  0.27615995     0.02700
C75         C  0.21292816  0.49209250  0.23173473     0.02700
C76         C  0.24798414  0.49131503  0.21121381    -0.17800
H77         H  0.24857631  0.49247950  0.17715298     0.03100
H78         H  0.24575787  0.48991901  0.33247325     0.04700
C79         C  0.17866396  0.49192251  0.20487505     0.00300
C80         C  0.17717190  0.46317894  0.17458730    -0.11600
C81         C  0.14860318  0.46372778  0.14434667     0.02500
C82         C  0.11964076  0.49251198  0.14527294     0.00200
C83         C  0.12042907  0.01868850  0.17697537    -0.11500
C84         C  0.15034824  0.01985552  0.20562035     0.02400
H85         H  0.19930990  0.44082954  0.17370011     0.15400
H86         H  0.09812648  0.04079073  0.17752636     0.15400
C87         C  0.15188709  0.05235185  0.23276256     0.37000
C88         C  0.14990271  0.43459205  0.11252322     0.36900
N89         N  0.15285046  0.07869690  0.25413470    -0.43300
N90         N  0.15124443  0.41138913  0.08686755    -0.43300
C91         C  0.17676727  0.49479313  0.30136083     0.00300
C92         C  0.17415935  0.02408223  0.33069069    -0.11600
C93         C  0.14446118  0.02637615  0.35947487     0.02500
C94         C  0.11817677  0.99820058  0.36014176     0.00200
C95         C  0.11999092  0.46958482  0.33031074    -0.11500
C96         C  0.15017069  0.46675835  0.30175156     0.02400
H97         H  0.19452998  0.04569086  0.33107217     0.15400
H98         H  0.10026148  0.44742925  0.33145411     0.15400
C99         C  0.15495680  0.43339214  0.27592654     0.37000
C100        C  0.14106355  0.05849089  0.38741708     0.36900
N101        N  0.15878862  0.40642971  0.25553201    -0.43300
N102        N  0.13821681  0.08444582  0.40948004    -0.43300
C103        C  0.31779854  0.49000669  0.20861267     0.00300
C104        C  0.34338672  0.02105333  0.21082921    -0.11600
C105        C  0.37393949  0.02395937  0.18326495     0.02500
C106        C  0.37717226  0.49889871  0.15088497     0.00200
C107        C  0.35454765  0.46797968  0.14788133    -0.11500
C108        C  0.32549738  0.46306975  0.17654052     0.02400
H109        H  0.33844074  0.04210196  0.23524833     0.15400
H110        H  0.35945736  0.44761226  0.12270047     0.15400
C111        C  0.30366745  0.43025399  0.17205514     0.37000
C112        C  0.39910258  0.05387258  0.18988193     0.36900
N113        N  0.28627690  0.40389434  0.16845008    -0.43300
N114        N  0.41929276  0.07771586  0.19599100    -0.43300
C115        C  0.37329829  0.49573749  0.36461769     0.00300
C116        C  0.37239540  0.46462349  0.33734851    -0.11600
C117        C  0.34308022  0.46216557  0.30789119     0.02500
C118        C  0.31525554  0.49194794  0.30446992     0.00200
C119        C  0.31871181  0.02818771  0.32813480    -0.11500
C120        C  0.34710218  0.03022581  0.35840446     0.02400
H121        H  0.39351958  0.44150737  0.34046587     0.15400
H122        H  0.29688578  0.05075716  0.32597506     0.15400
C123        C  0.34687846  0.06290184  0.38554995     0.37000
C124        C  0.34044721  0.42787965  0.28394672     0.36900
N125        N  0.34654120  0.08912620  0.40723886    -0.43300
N126        N  0.33796449  0.40027801  0.26502909    -0.43300
C127        C  0.49639456  0.12315748  0.14425230     0.00300
C128        C  0.46156677  0.14237756  0.15237100    -0.11600
C129        C  0.45856472  0.17120871  0.18246180     0.02500
C130        C  0.49089060  0.18121278  0.20492293     0.00200
C131        C  0.02665605  0.16330193  0.19475432    -0.11500
C132        C  0.02789412  0.13504516  0.16383426     0.02400
H133        H  0.43671918  0.13504070  0.13484086     0.15400
H134        H  0.05269037  0.17205411  0.20875517     0.15400
C135        C  0.06417073  0.11893376  0.15035558     0.37000
C136        C  0.42213946  0.19040573  0.18954203     0.36900
N137        N  0.09326232  0.10657925  0.13890234    -0.43300
N138        N  0.39288814  0.20566057  0.19526427    -0.43300
C139        C  0.99748987  0.11948311  0.35902426     0.00300
C140        C  0.52704647  0.14519512  0.35997147    -0.11600
C141        C  0.52733751  0.17449102  0.33075414     0.02500
C142        C  0.49814769  0.17918920  0.30045093     0.00200
C143        C  0.96723470  0.15524499  0.30150794    -0.11500
C144        C  0.96771824  0.12482228  0.32959894     0.02400
H145        H  0.54864226  0.14296336  0.38421251     0.15400
H146        H  0.94316585  0.16051456  0.28085118     0.15400
C147        C  0.93665385  0.10043280  0.32866878     0.37000
C148        C  0.55825943  0.19918382  0.33211104     0.36900
N149        N  0.91185178  0.08074409  0.32732941    -0.43300
N150        N  0.58313637  0.21884150  0.33284131    -0.43300
C151        C  0.49321211  0.31953653  0.20713905     0.00300
C152        C  0.02509146  0.32215047  0.18043353    -0.11600
C153        C  0.02730280  0.35155618  0.15166249     0.02500
C154        C  0.49881199  0.38042224  0.15074038     0.00200
C155        C  0.46696967  0.37831008  0.17674558    -0.11500
C156        C  0.46360994  0.34765153  0.20408520     0.02400
H157        H  0.04705615  0.29963314  0.18056344     0.15400
H158        H  0.44365827  0.39922765  0.17363639     0.15400
C159        C  0.42816709  0.34332962  0.22511198     0.37000
C160        C  0.05936476  0.35110339  0.12379556     0.36900
N161        N  0.39962793  0.33906411  0.24141638    -0.43300
N162        N  0.08517356  0.35062605  0.10161292    -0.43300
C163        C  0.49322211  0.37542915  0.36509821     0.00300
C164        C  0.01951745  0.37158897  0.33649814    -0.11600
C165        C  0.02024341  0.34192197  0.30740567     0.02500
C166        C  0.49109522  0.31840437  0.30328917     0.00200
C167        C  0.46037524  0.32583446  0.33044868    -0.11500
C168        C  0.46119581  0.35406326  0.36113405     0.02400
H169        H  0.04360322  0.38893801  0.33904917     0.15400
H170        H  0.43600032  0.30885315  0.32824293     0.15400
C171        C  0.42863473  0.36119201  0.38778405     0.37000
C172        C  0.05424726  0.33386442  0.28345120     0.36900
N173        N  0.40261383  0.36732595  0.40912212    -0.43300
N174        N  0.08171890  0.32725541  0.26463154    -0.43300
O175        O  0.99114214  0.39483444  0.93600173    -0.74900
O176        O  0.99428467  0.44030199  0.88587006    -0.53800
C177        C  0.49223272  0.40368122  0.89926452     0.78900
O178        O  0.39174539  0.50046051  0.57823573    -0.59500
O179        O  0.43842921  0.50392492  0.62745516    -0.52500
C180        C  0.40369815  0.50167056  0.61655619     0.70900
O181        O  0.39201122  0.00004977  0.93464135    -0.74000
O182        O  0.43841965  0.99452846  0.88501076    -0.54600
C183        C  0.40181492  0.49581580  0.89767193     0.76900
O184        O  0.50126334  0.39549970  0.57911172    -0.59200
O185        O  0.49542287  0.44303740  0.62759603    -0.52300
C186        C  0.49867384  0.40796500  0.61720453     0.73500
Zr187      Zr  0.99776811  0.42181861  0.00637414     2.54700
O188        O  0.45553303  0.37059488  0.01485103    -0.79700
O189        O  0.04999694  0.37403380  0.50426595    -0.93200
Zr190      Zr  0.41882591  0.00365797  0.00549912     2.64700
O191        O  0.36935741  0.45671176  0.00845387    -0.98100
O192        O  0.37239174  0.05593274  0.50738376    -0.80200
O193        O  0.45674579  0.46047815  0.96643613    -0.83500
O194        O  0.45707029  0.46117957  0.54750586    -2.18200
O195        O  0.10230038  0.48881342  0.57330028    -0.66900
O196        O  0.05614984  0.49710748  0.62293993    -0.51500
C197        C  0.09105387  0.99211731  0.61244088     0.71900
O198        O  0.99568498  0.10280405  0.92999875    -0.59800
O199        O  0.99292253  0.05527940  0.88173452    -0.51800
C200        C  0.99394431  0.09027148  0.89191144     0.73700
O201        O  0.49321525  0.10580098  0.57311321    -0.71200
O202        O  0.49731618  0.05953571  0.62279421    -0.49900
C203        C  0.99348803  0.09476347  0.61170075     0.75000
O204        O  0.10188558  0.99866980  0.93143534    -0.66600
O205        O  0.05487246  0.99502464  0.88258049    -0.53700
C206        C  0.08972387  0.99671730  0.89328115     0.73400
Zr207      Zr  0.07576655  0.49742271  0.50299267     2.77500
O208        O  0.11844450  0.05136427  0.00651056    -0.97300
O209        O  0.12908678  0.45155378  0.49667682    -0.78100
Zr210      Zr  0.49519923  0.07846068  0.50246040     2.70100
O211        O  0.04675530  0.12165467  0.50656243    -0.79400
O212        O  0.45297772  0.13091118  0.99880623    -0.98500
Zr213      Zr  0.99716268  0.99797398  0.92346705     2.21500
Zr214      Zr  0.49619694  0.50080410  0.58671194     2.11100
O215        O  0.03682802  0.03846821  0.54416820    -2.47100
O216        O  0.03626358  0.03851700  0.96161198    -0.79200
O217        O  0.03796338  0.45962704  0.54524894    -0.71400
O218        O  0.45716712  0.04072081  0.96309712    -2.32300
O219        O  0.03614441  0.45811419  0.96367001    -2.28500
O220        O  0.45629036  0.04172895  0.54472088    -0.73100
H221        H  0.44218338  0.44639935  0.56576114     0.78900
H222        H  0.44153290  0.05658856  0.94481746     0.80000
H223        H  0.05220461  0.05340257  0.56210170     0.82200
H224        H  0.05141331  0.44180282  0.94542583     0.79800
H225        H  0.35396028  0.05194027  0.98709391     0.42800
H226        H  0.42533688  0.11625277  0.47745966     0.41800
H227        H  0.06626296  0.11094475  0.01448485     0.41500
H228        H  0.11597089  0.05947199  0.53043705     0.39400
H229        H  0.11765458  0.42685078  0.49632508     0.42500
H230        H  0.04502381  0.35450917  0.01186232     0.37300
H231        H  0.47217001  0.34772653  0.01978642     0.43400
H232        H  0.34708066  0.46754149  0.49254948     0.39900
H233        H  0.14682085  0.02900535  0.51567854     0.44800
H234        H  0.07022606  0.38727808  0.02535105     0.43500
H235        H  0.37575085  0.44102367  0.03336646     0.43600
H236        H  0.42815362  0.12151437  0.52621089     0.44000
C237        C  0.49191592  0.28287560  0.77833423     0.02700
C238        C  0.49153987  0.28413524  0.73387471     0.02700
C239        C  0.49156555  0.25004438  0.71147685    -0.17800
C240        C  0.49362910  0.21509939  0.73192442     0.02700
C241        C  0.49672036  0.21380529  0.77618709     0.02700
C242        C  0.49454904  0.24789489  0.79869634    -0.17800
H243        H  0.49544855  0.24724565  0.83277605     0.04700
H244        H  0.49056086  0.25065780  0.67739215     0.04700
C245        C  0.28086133  0.49005747  0.73369055     0.02700
C246        C  0.28025458  0.48888630  0.77806312     0.02700
C247        C  0.24550268  0.48800607  0.79889360    -0.17800
C248        C  0.21110097  0.48882490  0.77695015     0.02700
C249        C  0.21162107  0.49034379  0.73258287     0.02700
C250        C  0.24638304  0.49156488  0.71186722    -0.17800
H251        H  0.24657184  0.49363627  0.67785444     0.03100
H252        H  0.24520500  0.48731490  0.83299212     0.04700
C253        C  0.17744805  0.48878498  0.70579732     0.00300
C254        C  0.17719108  0.46006231  0.67531113    -0.11600
C255        C  0.14918037  0.46001375  0.64440483     0.02500
C256        C  0.11944878  0.48804586  0.64505046     0.00200
C257        C  0.12067201  0.01630680  0.67711273    -0.11500
C258        C  0.15081690  0.01703508  0.70561707     0.02400
H259        H  0.20003165  0.43842814  0.67460543     0.15400
H260        H  0.09854536  0.03849493  0.67800400     0.15400
C261        C  0.15319104  0.04973967  0.73229068     0.37000
C262        C  0.15210943  0.43129185  0.61213709     0.36900
N263        N  0.15477940  0.07635863  0.75313055    -0.43300
N264        N  0.15499124  0.40836919  0.58622361    -0.43300
C265        C  0.17594607  0.49167976  0.80235716     0.00300
C266        C  0.17436259  0.02162506  0.82936100    -0.11600
C267        C  0.14462853  0.02471516  0.85804117     0.02500
C268        C  0.11836307  0.99654907  0.85962407     0.00200
C269        C  0.11943718  0.46628759  0.83181288    -0.11500
C270        C  0.14965200  0.46335562  0.80322914     0.02400
H271        H  0.19482146  0.04314612  0.82899629     0.15400
H272        H  0.09994084  0.44395252  0.83343249     0.15400
C273        C  0.15445407  0.43001174  0.77734831     0.37000
C274        C  0.14143324  0.05731944  0.88530021     0.36900
N275        N  0.15823557  0.40318471  0.75671861    -0.43300
N276        N  0.13875706  0.08355140  0.90696609    -0.43300
C277        C  0.31611943  0.48990526  0.70824247     0.00300
C278        C  0.34359075  0.01532786  0.71139479    -0.11600
C279        C  0.37327311  0.01929913  0.68288118     0.02500
C280        C  0.37525960  0.49777166  0.64998518     0.00200
C281        C  0.35091403  0.46833658  0.64594260    -0.11500
C282        C  0.32215342  0.46375037  0.67498642     0.02400
H283        H  0.33893457  0.03592831  0.73632491     0.15400
H284        H  0.35447002  0.44867054  0.61987616     0.15400
C285        C  0.29901844  0.43191679  0.66981718     0.37000
C286        C  0.39775061  0.04992276  0.68882232     0.36900
N287        N  0.28050014  0.40641484  0.66572880    -0.43300
N288        N  0.41743671  0.07438181  0.69385679    -0.43300
C289        C  0.37252526  0.49495992  0.86479821     0.00300
C290        C  0.37161855  0.46389791  0.83736829    -0.11600
C291        C  0.34229123  0.46154533  0.80782627     0.02500
C292        C  0.31440285  0.49127602  0.80458336     0.00200
C293        C  0.31995116  0.02269731  0.82664257    -0.11500
C294        C  0.34814926  0.02535163  0.85704002     0.02400
H295        H  0.39280112  0.44081760  0.84031658     0.15400
H296        H  0.29912389  0.04594469  0.82252421     0.15400
C297        C  0.34911139  0.05948506  0.88166080     0.37000
C298        C  0.33967185  0.42752245  0.78338298     0.36900
N299        N  0.34993269  0.08686060  0.90134229    -0.43300
N300        N  0.33690721  0.40029599  0.76385874    -0.43300
C301        C  0.49448328  0.12304103  0.64462975     0.00300
C302        C  0.46071173  0.14407417  0.65299029    -0.11600
C303        C  0.45965434  0.17302739  0.68295247     0.02500
C304        C  0.49272804  0.18098990  0.70528854     0.00200
C305        C  0.02207133  0.16092343  0.69842114    -0.11500
C306        C  0.02441593  0.13248606  0.66777813     0.02400
H307        H  0.43532873  0.13827356  0.63556679     0.15400
H308        H  0.04734424  0.16834527  0.71509421     0.15400
C309        C  0.06119226  0.11603427  0.65675588     0.37000
C310        C  0.42465530  0.19502907  0.68964236     0.36900
N311        N  0.09094651  0.10414452  0.64700539    -0.43300
N312        N  0.39687034  0.21302519  0.69517557    -0.43300
C313        C  0.99434081  0.11865871  0.85782079     0.00300
C314        C  0.52978870  0.14266161  0.85922802    -0.11600
C315        C  0.53063768  0.17216555  0.83030306     0.02500
C316        C  0.50114427  0.17801321  0.80058195     0.00200
C317        C  0.96505926  0.15419533  0.79943661    -0.11500
C318        C  0.96531590  0.12351821  0.82736103     0.02400
H319        H  0.55179829  0.13940806  0.88292218     0.15400
H320        H  0.94158973  0.15901940  0.77782764     0.15400
C321        C  0.93466381  0.09859805  0.82537557     0.37000
C322        C  0.56218197  0.19608836  0.83167303     0.36900
N323        N  0.91008084  0.07865488  0.82329545    -0.43300
N324        N  0.58759626  0.21507053  0.83259454    -0.43300
C325        C  0.49446810  0.31939269  0.70904235     0.00300
C326        C  0.02398579  0.32242896  0.68034148    -0.11600
C327        C  0.02632293  0.35193175  0.65167948     0.02500
C328        C  0.49910769  0.37936523  0.65108627     0.00200
C329        C  0.46841516  0.37843838  0.67892658    -0.11500
C330        C  0.46558183  0.34843343  0.70729536     0.02400
H331        H  0.04612132  0.30008713  0.68085086     0.15400
H332        H  0.44560986  0.40002031  0.67685209     0.15400
C333        C  0.43157483  0.34658159  0.73171541     0.37000
C334        C  0.05841717  0.35160895  0.62384568     0.36900
N335        N  0.40418401  0.34497901  0.75111057    -0.43300
N336        N  0.08401375  0.35134567  0.60136985    -0.43300
C337        C  0.49055544  0.37456484  0.86638265     0.00300
C338        C  0.01973892  0.37151231  0.83618863    -0.11600
C339        C  0.02011866  0.34221219  0.80649519     0.02500
C340        C  0.49083192  0.31688018  0.80534188     0.00200
C341        C  0.45930492  0.32409820  0.83137092    -0.11500
C342        C  0.45904929  0.35245008  0.86200923     0.02400
H343        H  0.04383129  0.38885221  0.83871900     0.15400
H344        H  0.43526762  0.30672302  0.82849146     0.15400
C345        C  0.42635963  0.35808257  0.88876951     0.37000
C346        C  0.05363919  0.33492876  0.78148020     0.36900
N347        N  0.40018586  0.36239359  0.91026897    -0.43300
N348        N  0.08073369  0.32922176  0.76173289    -0.43300
O349        O  0.99118590  0.89487514  0.43480981    -0.74900
O350        O  0.99742300  0.94017494  0.38509475    -0.53800
C351        C  0.49191451  0.90546990  0.39664642     0.78900
O352        O  0.39478850  0.00150341  0.07757144    -0.59500
O353        O  0.44170563  0.00410832  0.12663874    -0.52500
C354        C  0.40694645  0.00231205  0.11581421     0.70900
O355        O  0.39054139  0.49956164  0.43584302    -0.74000
O356        O  0.43708911  0.49399131  0.38629439    -0.54600
C357        C  0.40363732  0.00036778  0.39543405     0.76900
O358        O  0.49888954  0.89417546  0.07720570    -0.59200
O359        O  0.49725308  0.94181507  0.12573377    -0.52300
C360        C  0.49801329  0.90673034  0.11532306     0.73500
Zr361      Zr  0.99819657  0.92079128  0.50545543     2.54700
O362        O  0.45950853  0.86780775  0.51033635    -0.79700
O363        O  0.05931255  0.87933300  0.00485593    -0.93200
Zr364      Zr  0.41690026  0.50194678  0.50661906     2.64700
O365        O  0.36859981  0.95775594  0.50347202    -0.98100
O366        O  0.37000220  0.55523159  0.00716958    -0.80200
O367        O  0.45817442  0.96017990  0.46446750    -0.83500
O368        O  0.45825144  0.96155505  0.04594727    -2.18200
O369        O  0.10297242  0.99166589  0.07425567    -0.66900
O370        O  0.05691275  0.99901400  0.12413301    -0.51500
C371        C  0.09036011  0.49534511  0.11238781     0.71900
O372        O  0.99764540  0.60453571  0.43077103    -0.59800
O373        O  0.99328639  0.55735617  0.38238761    -0.51800
C374        C  0.99563842  0.59220791  0.39269001     0.73700
O375        O  0.49595794  0.60722984  0.07233323    -0.71200
O376        O  0.49847594  0.56161279  0.12280628    -0.49900
C377        C  0.99654809  0.59627397  0.11146451     0.75000
O378        O  0.10038430  0.49973601  0.43134879    -0.66600
O379        O  0.05342507  0.49679800  0.38237843    -0.53700
C380        C  0.08820423  0.49859834  0.39317170     0.73400
Zr381      Zr  0.07721854  0.99895267  0.00326093     2.77500
O382        O  0.11991569  0.54721396  0.50866825    -0.97300
O383        O  0.13217306  0.95477529  0.99945087    -0.78100
Zr384      Zr  0.49533657  0.57846606  0.00242196     2.70100
O385        O  0.03742311  0.63026317  0.00291282    -0.79400
O386        O  0.44307250  0.62699885  0.49875505    -0.98500
Zr387      Zr  0.99591270  0.49934150  0.42321152     2.21500
Zr388      Zr  0.49885076  0.99988475  0.08527989     2.11100
O389        O  0.03560596  0.53985186  0.04382259    -2.47100
O390        O  0.03606831  0.53839026  0.46164848    -0.79200
O391        O  0.04058954  0.96043437  0.04594324    -0.71400
O392        O  0.45450931  0.53949710  0.46397996    -2.32300
O393        O  0.03758660  0.95698520  0.46344200    -2.28500
O394        O  0.45612740  0.54284135  0.04560480    -0.73100
H395        H  0.44303837  0.94703699  0.06423067     0.78900
H396        H  0.43858023  0.55474155  0.44541096     0.80000
H397        H  0.05134502  0.55493274  0.06128327     0.82200
H398        H  0.05307543  0.94066748  0.44536411     0.79800
H399        H  0.37930893  0.57265417  0.48707709     0.42800
H400        H  0.45701199  0.65007338  0.98921166     0.41800
H401        H  0.06114782  0.61651487  0.47704247     0.41500
H402        H  0.11211745  0.56431527  0.98732287     0.39400
H403        H  0.15329019  0.96896527  0.01056444     0.42500
H404        H  0.05132051  0.86428662  0.47334483     0.37300
H405        H  0.43542039  0.87705128  0.49715931     0.43400
H406        H  0.37482225  0.94171666  0.02620557     0.39900
H407        H  0.12285209  0.55335663  0.03350895     0.44800
H408        H  0.04152243  0.85182724  0.51893117     0.43500
H409        H  0.37579597  0.93992576  0.48047475     0.43600
H410        H  0.42745421  0.62026072  0.97902663     0.44000
C411        C  0.48740320  0.78364763  0.27799101     0.02700
C412        C  0.48974046  0.78408845  0.23355804     0.02700
C413        C  0.49064765  0.74968497  0.21183217    -0.17800
C414        C  0.49048247  0.71520477  0.23297275     0.02700
C415        C  0.48944619  0.71456176  0.27729040     0.02700
C416        C  0.48695289  0.74900968  0.29908136    -0.17800
H417        H  0.48595181  0.74882755  0.33316105     0.04700
H418        H  0.49200114  0.74966092  0.17776276     0.04700
C419        C  0.28307573  0.99241194  0.23150721     0.02700
C420        C  0.28266338  0.99328656  0.27586738     0.02700
C421        C  0.24812152  0.99246586  0.29714839    -0.17800
C422        C  0.21351583  0.99188146  0.27567768     0.02700
C423        C  0.21387568  0.99216397  0.23118648     0.02700
C424        C  0.24853122  0.99255205  0.20998384    -0.17800
H425        H  0.24856010  0.99336895  0.17589256     0.03100
H426        H  0.24819916  0.99269877  0.33125490     0.04700
C427        C  0.17949614  0.99114316  0.20480670     0.00300
C428        C  0.17812664  0.96206161  0.17487691    -0.11600
C429        C  0.14908576  0.96180238  0.14526602     0.02500
C430        C  0.12030025  0.99071680  0.14577511     0.00200
C431        C  0.11992911  0.52027782  0.17671158    -0.11500
C432        C  0.14993390  0.52111692  0.20540090     0.02400
H433        H  0.20043756  0.93988145  0.17410433     0.15400
H434        H  0.09777778  0.54253194  0.17731917     0.15400
C435        C  0.15222189  0.55393727  0.23191530     0.37000
C436        C  0.14930379  0.93144680  0.11494512     0.36900
N437        N  0.15383816  0.58068749  0.25253750    -0.43300
N438        N  0.14955792  0.90711981  0.09065566    -0.43300
C439        C  0.17840385  0.99423584  0.30165349     0.00300
C440        C  0.17218923  0.52535112  0.32935922    -0.11600
C441        C  0.14263543  0.52779426  0.35828179     0.02500
C442        C  0.11668046  0.49931426  0.35953686     0.00200
C443        C  0.12105508  0.96921006  0.32994171    -0.11500
C444        C  0.15103097  0.96680504  0.30096549     0.02400
H445        H  0.19249314  0.54702395  0.32923477     0.15400
H446        H  0.10082574  0.94748461  0.33022695     0.15400
C447        C  0.15397586  0.93483764  0.27284132     0.37000
C448        C  0.13963677  0.55985398  0.38634488     0.36900
N449        N  0.15573644  0.90909143  0.25040550    -0.43300
N450        N  0.13744875  0.58573177  0.40856096    -0.43300
C451        C  0.31832543  0.99210405  0.20604038     0.00300
C452        C  0.34163568  0.51997159  0.21306555    -0.11600
C453        C  0.37154239  0.52428810  0.18491314     0.02500
C454        C  0.37861810  0.99856827  0.14917840     0.00200
C455        C  0.35478218  0.96868322  0.14571518    -0.11500
C456        C  0.32535907  0.96483104  0.17409370     0.02400
H457        H  0.33594991  0.54089537  0.23748093     0.15400
H458        H  0.35915443  0.94822607  0.12051833     0.15400
C459        C  0.30286833  0.93245128  0.16974970     0.37000
C460        C  0.39468035  0.55585521  0.19081638     0.36900
N461        N  0.28505804  0.90637185  0.16625071    -0.43300
N462        N  0.41291442  0.58126243  0.19675596    -0.43300
C463        C  0.37500975  0.00058913  0.36194048     0.00300
C464        C  0.37454662  0.96979579  0.33424110    -0.11600
C465        C  0.34540399  0.96727159  0.30470371     0.02500
C466        C  0.31701894  0.99655375  0.30182460     0.00200
C467        C  0.31705022  0.52344883  0.33086460    -0.11500
C468        C  0.34528178  0.52529303  0.36122654     0.02400
H469        H  0.39587907  0.94684176  0.33715936     0.15400
H470        H  0.29545410  0.54622744  0.32855979     0.15400
C471        C  0.34493091  0.55803786  0.38826389     0.37000
C472        C  0.34365256  0.93334276  0.27997733     0.36900
N473        N  0.34441725  0.58451946  0.40955272    -0.43300
N474        N  0.34196028  0.90611294  0.26022333    -0.43300
C475        C  0.49650128  0.62514409  0.14373144     0.00300
C476        C  0.46133233  0.64087717  0.15664139    -0.11600
C477        C  0.45878974  0.66851843  0.18801798     0.02500
C478        C  0.49194205  0.68087958  0.20679025     0.00200
C479        C  0.02651149  0.66469628  0.19514982    -0.11500
C480        C  0.02885426  0.63633089  0.16442652     0.02400
H481        H  0.43582856  0.63196905  0.14159516     0.15400
H482        H  0.05211380  0.67411562  0.20954534     0.15400
C483        C  0.06567478  0.62111873  0.15168281     0.37000
C484        C  0.42200495  0.68489380  0.19940579     0.36900
N485        N  0.09537305  0.60970486  0.14110739    -0.43300
N486        N  0.39259199  0.69802405  0.20875193    -0.43300
C487        C  0.99672335  0.62061461  0.35871194     0.00300
C488        C  0.52378398  0.64232311  0.35859992    -0.11600
C489        C  0.52374156  0.67224670  0.33017604     0.02500
C490        C  0.49304927  0.67907166  0.30227644     0.00200
C491        C  0.96780569  0.65625184  0.30033385    -0.11500
C492        C  0.96753372  0.62600115  0.32860720     0.02400
H493        H  0.54693187  0.63821060  0.38079734     0.15400
H494        H  0.94415508  0.66149684  0.27908882     0.15400
C495        C  0.93601072  0.60218351  0.32751218     0.37000
C496        C  0.55556584  0.69577001  0.33031462     0.36900
N497        N  0.91070235  0.58311690  0.32618858    -0.43300
N498        N  0.58114638  0.71453123  0.33027598    -0.43300
C499        C  0.49299363  0.81901208  0.20816221     0.00300
C500        C  0.02601929  0.82312734  0.18095661    -0.11600
C501        C  0.02829882  0.85240902  0.15218602     0.02500
C502        C  0.49786989  0.87828871  0.14933272     0.00200
C503        C  0.46629846  0.87682262  0.17580402    -0.11500
C504        C  0.46343101  0.84719759  0.20464591     0.02400
H505        H  0.04841586  0.80105662  0.18200014     0.15400
H506        H  0.44300320  0.89771797  0.17239257     0.15400
C507        C  0.42875108  0.84458106  0.22768800     0.37000
C508        C  0.06031880  0.85185961  0.12424959     0.36900
N509        N  0.40090677  0.84208792  0.24603842    -0.43300
N510        N  0.08568347  0.85121627  0.10143830    -0.43300
C511        C  0.48871664  0.87687029  0.36364477     0.00300
C512        C  0.02188179  0.87222401  0.33555454    -0.11600
C513        C  0.02271221  0.84299485  0.30590201     0.02500
C514        C  0.48718695  0.81813996  0.30419718     0.00200
C515        C  0.45623439  0.82616810  0.33086324    -0.11500
C516        C  0.45695524  0.85497586  0.36083638     0.02400
H517        H  0.04591990  0.88959636  0.33854977     0.15400
H518        H  0.43198499  0.80897439  0.32915784     0.15400
C519        C  0.42513767  0.86118888  0.38877637     0.37000
C520        C  0.05662099  0.83578945  0.28150192     0.36900
N521        N  0.39974812  0.86605791  0.41130981    -0.43300
N522        N  0.08413047  0.83032316  0.26240640    -0.43300
O523        O  0.99347272  0.89376634  0.93645948    -0.74900
O524        O  0.99722791  0.93871062  0.88594314    -0.53800
C525        C  0.49357971  0.90481449  0.89652622     0.78900
O526        O  0.39331891  0.99854808  0.57620484    -0.59500
O527        O  0.44011931  0.00196111  0.62531985    -0.52500
C528        C  0.40545934  0.99926790  0.61447660     0.70900
O529        O  0.39048747  0.49960257  0.93601166    -0.74000
O530        O  0.43645959  0.49358398  0.88584387    -0.54600
C531        C  0.40368765  0.99647013  0.89641961     0.76900
O532        O  0.50243267  0.89499234  0.57648975    -0.59200
O533        O  0.49754215  0.94248689  0.62508768    -0.52300
C534        C  0.50025613  0.90744798  0.61459180     0.73500
Zr535      Zr  0.00226784  0.92093069  0.00631250     2.54700
O536        O  0.45312941  0.87054108  0.00890545    -0.79700
O537        O  0.05047556  0.87329727  0.50283625    -0.93200
Zr538      Zr  0.41738126  0.50295375  0.00676971     2.64700
O539        O  0.36743683  0.96109919  0.00504972    -0.98100
O540        O  0.36995771  0.55459857  0.50756930    -0.80200
O541        O  0.45730096  0.96039312  0.96522938    -0.83500
O542        O  0.45858741  0.96095759  0.54486202    -2.18200
O543        O  0.10265367  0.99036754  0.57409883    -0.66900
O544        O  0.05640419  0.99709154  0.62387860    -0.51500
C545        C  0.09070671  0.49114420  0.61158528     0.71900
O546        O  0.99778873  0.60382029  0.93079502    -0.59800
O547        O  0.99242699  0.55658152  0.88264547    -0.51800
C548        C  0.99545284  0.59134310  0.89273043     0.73700
O549        O  0.49058381  0.60624735  0.57369347    -0.71200
O550        O  0.49576077  0.56042546  0.62389502    -0.49900
C551        C  0.99693178  0.59542315  0.61084785     0.75000
O552        O  0.09936455  0.49847055  0.93183363    -0.66600
O553        O  0.05217530  0.49528789  0.88312700    -0.53700
C554        C  0.08705970  0.49671695  0.89376469     0.73400
Zr555      Zr  0.07609041  0.99611981  0.50338173     2.77500
O556        O  0.12303085  0.54323542  0.00446062    -0.97300
O557        O  0.12297108  0.94361328  0.49809082    -0.78100
Zr558      Zr  0.49391444  0.57815122  0.50343671     2.70100
O559        O  0.04580671  0.62347280  0.50214857    -0.79400
O560        O  0.44508706  0.62806275  0.00118818    -0.98500
Zr561      Zr  0.99450336  0.49922046  0.92401256     2.21500
Zr562      Zr  0.49763926  0.00038905  0.58460141     2.11100
O563        O  0.03651162  0.53950223  0.54384945    -2.47100
O564        O  0.03458382  0.53841731  0.96251826    -0.79200
O565        O  0.03793775  0.95869559  0.54543522    -0.71400
O566        O  0.45485835  0.54020153  0.96362501    -2.32300
O567        O  0.04001613  0.95808142  0.96364627    -2.28500
O568        O  0.45501847  0.54175286  0.54610780    -0.73100
H569        H  0.44378242  0.94583309  0.56291563     0.78900
H570        H  0.43870476  0.55557350  0.94536464     0.80000
H571        H  0.05196680  0.55436185  0.56191021     0.82200
H572        H  0.05583063  0.94202046  0.94558894     0.79800
H573        H  0.38306378  0.57644665  0.01971703     0.42800
H574        H  0.42946398  0.62149406  0.47240884     0.41800
H575        H  0.02094459  0.65365695  0.00167025     0.41500
H576        H  0.11196379  0.56516839  0.48627922     0.39400
H577        H  0.14709638  0.95547270  0.49295883     0.42500
H578        H  0.07978118  0.89530143  0.01407215     0.37300
H579        H  0.46799437  0.84710386  0.00127846     0.43400
H580        H  0.34593822  0.97227945  0.49279618     0.39900
H581        H  0.11341782  0.56074123  0.53516567     0.44800
H582        H  0.06431436  0.87448212  0.97465579     0.43500
H583        H  0.34579899  0.97578154  0.01782400     0.43600
H584        H  0.42534289  0.62094669  0.52138383     0.44000
C585        C  0.48830831  0.78462150  0.77601318     0.02700
C586        C  0.48934830  0.78461650  0.73159150     0.02700
C587        C  0.48759433  0.75022478  0.71020748    -0.17800
C588        C  0.48649112  0.71597639  0.73184169     0.02700
C589        C  0.48776042  0.71561919  0.77621555     0.02700
C590        C  0.48714856  0.75029525  0.79753287    -0.17800
H591        H  0.48690055  0.75054267  0.83163196     0.04700
H592        H  0.48783850  0.74998778  0.67610318     0.04700
C593        C  0.28339179  0.98645455  0.73200585     0.02700
C594        C  0.28291857  0.98674320  0.77640682     0.02700
C595        C  0.24826128  0.98672725  0.79751193    -0.17800
C596        C  0.21370575  0.98751820  0.77584538     0.02700
C597        C  0.21400781  0.98802758  0.73138091     0.02700
C598        C  0.24878947  0.98763936  0.71033391    -0.17800
H599        H  0.24886534  0.98880948  0.67626382     0.03100
H600        H  0.24818475  0.98686357  0.83162364     0.04700
C601        C  0.17941390  0.98772562  0.70498058     0.00300
C602        C  0.17730938  0.95867842  0.67510298    -0.11600
C603        C  0.14835217  0.95918018  0.64523479     0.02500
C604        C  0.12000929  0.98855661  0.64572473     0.00200
C605        C  0.11846682  0.51555578  0.67683730    -0.11500
C606        C  0.14791530  0.51710534  0.70605851     0.02400
H607        H  0.19914755  0.93604133  0.67435801     0.15400
H608        H  0.09584815  0.53736952  0.67711857     0.15400
C609        C  0.14890604  0.55001882  0.73260764     0.37000
C610        C  0.14823997  0.92912721  0.61458525     0.36900
N611        N  0.14939813  0.57692107  0.75314691    -0.43300
N612        N  0.14827016  0.90507882  0.58996945    -0.43300
C613        C  0.17865655  0.99087981  0.80157210     0.00300
C614        C  0.17099155  0.52264303  0.82968964    -0.11600
C615        C  0.14125886  0.52538793  0.85830644     0.02500
C616        C  0.11560655  0.49669270  0.86016432     0.00200
C617        C  0.12149234  0.96649617  0.83075728    -0.11500
C618        C  0.15168160  0.96317289  0.80215402     0.02400
H619        H  0.19101238  0.54456812  0.82909725     0.15400
H620        H  0.10148849  0.94460091  0.83206226     0.15400
C621        C  0.15586843  0.92979914  0.77624348     0.37000
C622        C  0.13765996  0.55806820  0.88541425     0.36900
N623        N  0.15913056  0.90286486  0.75572454    -0.43300
N624        N  0.13487080  0.58440128  0.90691096    -0.43300
C625        C  0.31866720  0.98624981  0.70654939     0.00300
C626        C  0.34152244  0.51849714  0.71350127    -0.11600
C627        C  0.37145433  0.52212996  0.68515115     0.02500
C628        C  0.37741395  0.99467734  0.64803482     0.00200
C629        C  0.35375206  0.96464935  0.64442900    -0.11500
C630        C  0.32509812  0.95984214  0.67358993     0.02400
H631        H  0.33723415  0.53878943  0.73881707     0.15400
H632        H  0.35763646  0.94485061  0.61852654     0.15400
C633        C  0.30239962  0.92767032  0.66867872     0.37000
C634        C  0.39683523  0.55182607  0.69199093     0.36900
N635        N  0.28427859  0.90187162  0.66462242    -0.43300
N636        N  0.41727340  0.57547232  0.69803272    -0.43300
C637        C  0.37483393  0.99501966  0.86315075     0.00300
C638        C  0.37306510  0.96251345  0.83808736    -0.11600
C639        C  0.34398894  0.95945474  0.80839109     0.02500
C640        C  0.31717540  0.98980832  0.80262257     0.00200
C641        C  0.31621517  0.52271045  0.83109008    -0.11500
C642        C  0.34459638  0.52457041  0.86133060     0.02400
H643        H  0.39335196  0.93894978  0.84305696     0.15400
H644        H  0.29456851  0.54544694  0.82891879     0.15400
C645        C  0.34452408  0.55730452  0.88835790     0.37000
C646        C  0.34047251  0.92421826  0.78649869     0.36900
N647        N  0.34441367  0.58354113  0.91000143    -0.43300
N648        N  0.33711645  0.89595658  0.76913932    -0.43300
C649        C  0.49095601  0.62395667  0.64513317     0.00300
C650        C  0.45624954  0.64320130  0.65385080    -0.11600
C651        C  0.45376373  0.67172255  0.68431650     0.02500
C652        C  0.48648728  0.68138263  0.70620992     0.00200
C653        C  0.02689613  0.66323906  0.69479099    -0.11500
C654        C  0.02919442  0.63477506  0.66420924     0.02400
H655        H  0.43116870  0.63609926  0.63660809     0.15400
H656        H  0.05247247  0.67240337  0.70947320     0.15400
C657        C  0.06590723  0.61867942  0.65218514     0.37000
C658        C  0.41756650  0.69108597  0.69236058     0.36900
N659        N  0.09543857  0.60631407  0.64218413    -0.43300
N660        N  0.38857836  0.70652842  0.69907036    -0.43300
C661        C  0.99688835  0.61934831  0.85838897     0.00300
C662        C  0.52101122  0.64500709  0.85996248    -0.11600
C663        C  0.52097554  0.67490121  0.83155778     0.02500
C664        C  0.49155434  0.68023133  0.80166825     0.00200
C665        C  0.96872896  0.65401516  0.79889574    -0.11500
C666        C  0.96830896  0.62397977  0.82741455     0.02400
H667        H  0.54306327  0.64219512  0.88365588     0.15400
H668        H  0.94540096  0.65881090  0.77711878     0.15400
C669        C  0.93713741  0.59973131  0.82563253     0.37000
C670        C  0.55194103  0.69950894  0.83333373     0.36900
N671        N  0.91207614  0.58039137  0.82359707    -0.43300
N672        N  0.57683714  0.71912497  0.83451896    -0.43300
C673        C  0.49328384  0.81922504  0.70606595     0.00300
C674        C  0.02513081  0.82073356  0.67942869    -0.11600
C675        C  0.02785551  0.85003347  0.65070711     0.02500
C676        C  0.49981719  0.87899459  0.64843858     0.00200
C677        C  0.46729161  0.87696151  0.67325875    -0.11500
C678        C  0.46359796  0.84704817  0.70139918     0.02400
H679        H  0.04702696  0.79814879  0.68005591     0.15400
H680        H  0.44387266  0.89756831  0.66888781     0.15400
C681        C  0.42793660  0.84351114  0.72219082     0.37000
C682        C  0.06035881  0.84933735  0.62347165     0.36900
N683        N  0.39924962  0.84011053  0.73851620    -0.43300
N684        N  0.08655685  0.84837545  0.60183929    -0.43300
C685        C  0.49073699  0.87649875  0.86312339     0.00300
C686        C  0.02003882  0.87184472  0.83461711    -0.11600
C687        C  0.02047724  0.84268620  0.80481812     0.02500
C688        C  0.48846742  0.81930666  0.80187278     0.00200
C689        C  0.45744562  0.82743524  0.82837066    -0.11500
C690        C  0.45861756  0.85527469  0.85935119     0.02400
H691        H  0.04324003  0.89041013  0.83573229     0.15400
H692        H  0.43290203  0.81068993  0.82607017     0.15400
C693        C  0.42697707  0.86095796  0.88760033     0.37000
C694        C  0.05345826  0.83661972  0.77868698     0.36900
N695        N  0.40183982  0.86536531  0.91054716    -0.43300
N696        N  0.08022753  0.83179391  0.75821137    -0.43300
O697        O  0.49358810  0.39306706  0.43679778    -0.74900
O698        O  0.49872367  0.43827229  0.38673068    -0.53800
C699        C  0.99159453  0.40633135  0.39728012     0.78900
O700        O  0.89210917  0.50001523  0.07803028    -0.59500
O701        O  0.93904230  0.50445588  0.12679777    -0.52500
C702        C  0.90435389  0.50127837  0.11616957     0.70900
O703        O  0.89168897  0.00092022  0.43444874    -0.74000
O704        O  0.93816377  0.99719025  0.38475549    -0.54600
C705        C  0.90297621  0.49850616  0.39578405     0.76900
O706        O  0.99934393  0.39699159  0.07820085    -0.59200
O707        O  0.99626810  0.44449349  0.12689667    -0.52300
C708        C  0.99803629  0.40941741  0.11639266     0.73500
Zr709      Zr  0.49793226  0.42025768  0.50734460     2.54700
O710        O  0.95206401  0.37347500  0.50911814    -0.79700
O711        O  0.55422896  0.37799621  0.00083667    -0.93200
Zr712      Zr  0.91781517  0.00321904  0.50538153     2.64700
O713        O  0.87161722  0.45536672  0.50345061    -0.98100
O714        O  0.86918827  0.05057260  0.00938038    -0.80200
O715        O  0.95709715  0.46188628  0.46482781    -0.83500
O716        O  0.95719882  0.46297304  0.04665654    -2.18200
O717        O  0.60254621  0.49256192  0.07417989    -0.66900
O718        O  0.55627594  0.49805503  0.12407753    -0.51500
C719        C  0.59204278  0.98966902  0.11285094     0.71900
O720        O  0.49915604  0.10290015  0.43062737    -0.59800
O721        O  0.49628771  0.05556572  0.38219526    -0.51800
C722        C  0.49818018  0.09042505  0.39247205     0.73700
O723        O  0.99239440  0.10720012  0.07260769    -0.71200
O724        O  0.99760154  0.06135247  0.12272331    -0.49900
C725        C  0.49810384  0.09396413  0.11122110     0.75000
O726        O  0.60183312  0.99716115  0.43213792    -0.66600
O727        O  0.55507871  0.99333667  0.38299853    -0.53700
C728        C  0.58986853  0.99490484  0.39396661     0.73400
Zr729      Zr  0.57570670  0.49619998  0.00339275     2.77500
O730        O  0.62243783  0.04484509  0.50883823    -0.97300
O731        O  0.62070255  0.44199106  0.99980119    -0.78100
Zr732      Zr  0.99506521  0.07889946  0.00228540     2.70100
O733        O  0.55195316  0.11777839  0.00422047    -0.79400
O734        O  0.94700883  0.12914748  0.49523049    -0.98500
Zr735      Zr  0.49701093  0.99809387  0.42318740     2.21500
Zr736      Zr  0.99675591  0.50227046  0.08591984     2.11100
O737        O  0.53901559  0.03673586  0.04415905    -2.47100
O738        O  0.53641652  0.03758239  0.46228389    -0.79200
O739        O  0.53807571  0.45935223  0.04670260    -0.71400
O740        O  0.95578566  0.04084756  0.46326289    -2.32300
O741        O  0.53728038  0.45680075  0.46563038    -2.28500
O742        O  0.95662334  0.04193246  0.04489704    -0.73100
H743        H  0.94245635  0.44803824  0.06495304     0.78900
H744        H  0.93998212  0.05653008  0.44506751     0.80000
H745        H  0.55484162  0.05138267  0.06195691     0.82200
H746        H  0.55318168  0.44060724  0.44788364     0.79800
H747        H  0.88284188  0.07588482  0.52166939     0.42800
H748        H  0.92827084  0.12360399  0.02260540     0.41800
H749        H  0.55486322  0.12358355  0.52964937     0.41500
H750        H  0.60947622  0.06387528  0.99072951     0.39400
H751        H  0.64542683  0.45280952  0.99508266     0.42500
H752        H  0.53650095  0.34820987  0.51629944     0.37300
H753        H  0.93150173  0.38452631  0.52707848     0.43400
H754        H  0.87330555  0.44327878  0.97962557     0.39900
H755        H  0.62428259  0.04999673  0.03468057     0.44800
H756        H  0.56667538  0.37783270  0.52474479     0.43500
H757        H  0.87359601  0.44327574  0.53138393     0.43600
H758        H  0.95645083  0.15129624  0.00374710     0.44000
C759        C  0.99036590  0.28451054  0.27794765     0.02700
C760        C  0.99154815  0.28537858  0.23340189     0.02700
C761        C  0.99197308  0.25103961  0.21134868    -0.17800
C762        C  0.99249313  0.21632930  0.23218283     0.02700
C763        C  0.99308465  0.21542741  0.27648439     0.02700
C764        C  0.99106977  0.24965372  0.29865445    -0.17800
H765        H  0.99092434  0.24913532  0.33275214     0.04700
H766        H  0.99220726  0.25125197  0.17725070     0.04700
C767        C  0.78119074  0.49109082  0.23287145     0.02700
C768        C  0.78099059  0.49201026  0.27727239     0.02700
C769        C  0.74643757  0.49248700  0.29870082    -0.17800
C770        C  0.71183791  0.49267337  0.27733392     0.02700
C771        C  0.71191860  0.49217224  0.23291430     0.02700
C772        C  0.74650679  0.49178354  0.21152015    -0.17800
H773        H  0.74635900  0.49237286  0.17742505     0.03100
H774        H  0.74647854  0.49305289  0.33281083     0.04700
C775        C  0.67732568  0.49091269  0.20683328     0.00300
C776        C  0.67562832  0.46124150  0.17768004    -0.11600
C777        C  0.64757141  0.46154553  0.14683172     0.02500
C778        C  0.61959890  0.49124131  0.14587857     0.00200
C779        C  0.62124103  0.01572669  0.17664940    -0.11500
C780        C  0.65111632  0.01728385  0.20538009     0.02400
H781        H  0.69740123  0.43852882  0.17793571     0.15400
H782        H  0.59935949  0.03818848  0.17618276     0.15400
C783        C  0.65399016  0.05103604  0.23028629     0.37000
C784        C  0.64853335  0.43145858  0.11614563     0.36900
N785        N  0.65631827  0.07848251  0.24956110    -0.43300
N786        N  0.64967822  0.40747334  0.09140526    -0.43300
C787        C  0.67694847  0.49551690  0.30325936     0.00300
C788        C  0.67315678  0.02163646  0.32933191    -0.11600
C789        C  0.64364783  0.02394420  0.35820148     0.02500
C790        C  0.61864938  0.99472552  0.36060274     0.00200
C791        C  0.62198125  0.46894291  0.33477360    -0.11500
C792        C  0.65171831  0.46635331  0.30564086     0.02400
H793        H  0.69259693  0.04406528  0.32828764     0.15400
H794        H  0.60332074  0.44597200  0.33737697     0.15400
C795        C  0.65734398  0.43237264  0.28096845     0.37000
C796        C  0.63939627  0.05697520  0.38466207     0.36900
N797        N  0.66179423  0.40496442  0.26143180    -0.43300
N798        N  0.63613554  0.08373630  0.40543349    -0.43300
C799        C  0.81630786  0.49057708  0.20715494     0.00300
C800        C  0.84347220  0.01931632  0.21196162    -0.11600
C801        C  0.87376914  0.02239274  0.18399903     0.02500
C802        C  0.87619867  0.49712290  0.14970392     0.00200
C803        C  0.85212980  0.46738741  0.14621799    -0.11500
C804        C  0.82284153  0.46354773  0.17483980     0.02400
H805        H  0.83887059  0.04010504  0.23671879     0.15400
H806        H  0.85614392  0.44711786  0.12078726     0.15400
C807        C  0.79982936  0.43154967  0.17031395     0.37000
C808        C  0.89922548  0.05202055  0.19079940     0.36900
N809        N  0.78145882  0.40587599  0.16677130    -0.43300
N810        N  0.91971026  0.07558704  0.19702424    -0.43300
C811        C  0.87396474  0.49815449  0.36275351     0.00300
C812        C  0.87345158  0.46763527  0.33460028    -0.11600
C813        C  0.84394363  0.46530184  0.30536752     0.02500
C814        C  0.81548931  0.49462150  0.30315780     0.00200
C815        C  0.81824759  0.02578413  0.32944637    -0.11500
C816        C  0.84642445  0.02776014  0.35990376     0.02400
H817        H  0.89499830  0.44481807  0.33689344     0.15400
H818        H  0.79633451  0.04827135  0.32730797     0.15400
C819        C  0.84564396  0.06003066  0.38771926     0.37000
C820        C  0.84183857  0.43158364  0.28029863     0.36900
N821        N  0.84506391  0.08586914  0.40999527    -0.43300
N822        N  0.83969415  0.40457501  0.26024566    -0.43300
C823        C  0.99422767  0.12491645  0.14416188     0.00300
C824        C  0.95979082  0.14337539  0.15563195    -0.11600
C825        C  0.95858907  0.17175829  0.18632726     0.02500
C826        C  0.99223429  0.18199380  0.20590663     0.00200
C827        C  0.52566509  0.16176125  0.19714274    -0.11500
C828        C  0.52875388  0.13316502  0.16667867     0.02400
H829        H  0.93392122  0.13592729  0.14020161     0.15400
H830        H  0.55076857  0.17032575  0.21332797     0.15400
C831        C  0.56590511  0.11728691  0.15630031     0.37000
C832        C  0.92278395  0.19094476  0.19661615     0.36900
N833        N  0.59611428  0.10581728  0.14776512    -0.43300
N834        N  0.89435798  0.20663027  0.20528409    -0.43300
C835        C  0.49936663  0.11864062  0.35827911     0.00300
C836        C  0.02774784  0.14312606  0.35737727    -0.11600
C837        C  0.02798158  0.17252856  0.32824507     0.02500
C838        C  0.99679668  0.17984802  0.30116429     0.00200
C839        C  0.47162256  0.15139577  0.29724873    -0.11500
C840        C  0.47264402  0.12077080  0.32514530     0.02400
H841        H  0.05126110  0.13863939  0.37902424     0.15400
H842        H  0.44928291  0.15423417  0.27396320     0.15400
C843        C  0.44510971  0.09274841  0.32014030     0.37000
C844        C  0.06067379  0.19482638  0.32637719     0.36900
N845        N  0.42338854  0.06998355  0.31582817    -0.43300
N846        N  0.08692486  0.21258618  0.32438064    -0.43300
C847        C  0.99445964  0.32054493  0.20816282     0.00300
C848        C  0.52526098  0.32229257  0.18188015    -0.11600
C849        C  0.52813143  0.35200835  0.15369711     0.02500
C850        C  0.99869201  0.38073157  0.15025381     0.00200
C851        C  0.96880451  0.38031091  0.17920867    -0.11500
C852        C  0.96617086  0.35024358  0.20756496     0.02400
H853        H  0.54775563  0.30033633  0.18331447     0.15400
H854        H  0.94639373  0.40235646  0.17804813     0.15400
C855        C  0.93274648  0.34893322  0.23305442     0.37000
C856        C  0.56118088  0.35201154  0.12738494     0.36900
N857        N  0.90588231  0.34761268  0.25339714    -0.43300
N858        N  0.58778708  0.35135692  0.10640646    -0.43300
C859        C  0.98915693  0.37753991  0.36431172     0.00300
C860        C  0.52342952  0.36909822  0.33710562    -0.11600
C861        C  0.52281073  0.34054158  0.30657177     0.02500
C862        C  0.98939404  0.31872740  0.30473653     0.00200
C863        C  0.95861212  0.32534907  0.33204401    -0.11500
C864        C  0.95830779  0.35439487  0.36181079     0.02400
H865        H  0.54807480  0.38563031  0.34008584     0.15400
H866        H  0.93509528  0.30718469  0.33060483     0.15400
C867        C  0.92613155  0.35992244  0.38938155     0.37000
C868        C  0.55586210  0.33332607  0.28079446     0.36900
N869        N  0.90034218  0.36431662  0.41143788    -0.43300
N870        N  0.58258161  0.32796296  0.26034703    -0.43300
O871        O  0.48997832  0.39304520  0.93777041    -0.74900
O872        O  0.49642640  0.43758921  0.88721442    -0.53800
C873        C  0.99173612  0.40606440  0.89755538     0.78900
O874        O  0.89243965  0.50246423  0.57693119    -0.59500
O875        O  0.93938357  0.50571935  0.62589725    -0.52500
C876        C  0.90459002  0.50352630  0.61519201     0.70900
O877        O  0.89162100  0.00217811  0.93572269    -0.74000
O878        O  0.93784439  0.99708638  0.88579586    -0.54600
C879        C  0.90079489  0.50125615  0.89794593     0.76900
O880        O  0.99866822  0.39718324  0.57784957    -0.59200
O881        O  0.99553972  0.44460846  0.62653690    -0.52300
C882        C  0.99712628  0.40956377  0.61603919     0.73500
Zr883      Zr  0.49857035  0.42095376  0.00719480     2.54700
O884        O  0.95480145  0.37106590  0.01032320    -0.79700
O885        O  0.54774854  0.37038254  0.50382280    -0.93200
Zr886      Zr  0.91921742  0.00097456  0.00592781     2.64700
O887        O  0.86736988  0.45923999  0.00459750    -0.98100
O888        O  0.87149909  0.05639202  0.50415600    -0.80200
O889        O  0.95588842  0.46174516  0.96601094    -0.83500
O890        O  0.95723913  0.46271958  0.54599332    -2.18200
O891        O  0.60095352  0.48811676  0.57591235    -0.66900
O892        O  0.55486743  0.49659134  0.62557753    -0.51500
C893        C  0.59079538  0.98999598  0.61236476     0.71900
O894        O  0.50214712  0.10148098  0.93046380    -0.59800
O895        O  0.49545292  0.05455987  0.88231747    -0.51800
C896        C  0.49925337  0.08920802  0.89240420     0.73700
O897        O  0.99106368  0.10613314  0.57338580    -0.71200
O898        O  0.99723452  0.06019384  0.62330507    -0.49900
C899        C  0.49494721  0.09418510  0.61136430     0.75000
O900        O  0.60164302  0.99328928  0.93195782    -0.66600
O901        O  0.55440157  0.99326963  0.88295464    -0.53700
C902        C  0.58929573  0.99317499  0.89382675     0.73400
Zr903      Zr  0.57504741  0.49696864  0.50534294     2.77500
O904        O  0.62269346  0.04216927  0.00485197    -0.97300
O905        O  0.62695043  0.44957465  0.49844124    -0.78100
Zr906      Zr  0.99589933  0.07862330  0.50289065     2.70100
O907        O  0.54067448  0.12720866  0.50298371    -0.79400
O908        O  0.94416004  0.12757535  0.99766846    -0.98500
Zr909      Zr  0.49692166  0.99715876  0.92370399     2.21500
Zr910      Zr  0.99707280  0.50181371  0.58491933     2.11100
O911        O  0.53668087  0.03877095  0.54386874    -2.47100
O912        O  0.53814174  0.03506884  0.96215428    -0.79200
O913        O  0.53729267  0.45882905  0.54707424    -0.71400
O914        O  0.95593878  0.03951724  0.96349552    -2.32300
O915        O  0.53707481  0.45683142  0.96394687    -2.28500
O916        O  0.95641785  0.04244332  0.54520852    -0.73100
H917        H  0.94221803  0.44812615  0.56433644     0.78900
H918        H  0.93961489  0.05490994  0.94535458     0.80000
H919        H  0.55182670  0.05371409  0.56203040     0.82200
H920        H  0.55249656  0.44042842  0.94590677     0.79800
H921        H  0.88111599  0.07321382  0.99902979     0.42800
H922        H  0.93701803  0.13393830  0.52389744     0.41800
H923        H  0.54197302  0.14127502  0.01800672     0.41500
H924        H  0.62022353  0.05836953  0.48180358     0.39400
H925        H  0.61537684  0.42545824  0.50402345     0.42500
H926        H  0.54445428  0.35413827  0.99048088     0.37300
H927        H  0.93239182  0.38227724  0.02526032     0.43400
H928        H  0.88261805  0.43601526  0.48386233     0.39900
H929        H  0.61181562  0.06320313  0.52973530     0.44800
H930        H  0.56214389  0.37264026  0.03012376     0.43500
H931        H  0.87300463  0.44235510  0.02872426     0.43600
H932        H  0.96092977  0.15169689  0.48861661     0.44000
C933        C  0.98981283  0.28462854  0.77712611     0.02700
C934        C  0.98983643  0.28537957  0.73258759     0.02700
C935        C  0.98856744  0.25113387  0.71060553    -0.17800
C936        C  0.98846247  0.21642564  0.73150281     0.02700
C937        C  0.99053852  0.21543518  0.77582078     0.02700
C938        C  0.99010206  0.24976707  0.79789582    -0.17800
H939        H  0.99065089  0.24933632  0.83198625     0.04700
H940        H  0.98816896  0.25140868  0.67650623     0.04700
C941        C  0.78224188  0.48998621  0.73276613     0.02700
C942        C  0.78141961  0.49199490  0.77712172     0.02700
C943        C  0.74671117  0.49244961  0.79816660    -0.17800
C944        C  0.71234761  0.49183176  0.77648377     0.02700
C945        C  0.71288048  0.49046085  0.73200070     0.02700
C946        C  0.74777087  0.48969156  0.71100832    -0.17800
H947        H  0.74802789  0.48957370  0.67691272     0.03100
H948        H  0.74645729  0.49365538  0.83226257     0.04700
C949        C  0.67836055  0.48883054  0.70567946     0.00300
C950        C  0.67726368  0.45974401  0.67568502    -0.11600
C951        C  0.64812875  0.45913108  0.64611563     0.02500
C952        C  0.61834783  0.48707594  0.64746597     0.00200
C953        C  0.61811395  0.01299393  0.67852246    -0.11500
C954        C  0.64813352  0.01513600  0.70688362     0.02400
H955        H  0.70007636  0.43809571  0.67446174     0.15400
H956        H  0.59468748  0.03383788  0.68008529     0.15400
C957        C  0.64840680  0.04788845  0.73375412     0.37000
C958        C  0.64965816  0.42972941  0.61460170     0.36900
N959        N  0.64800332  0.07470185  0.75452193    -0.43300
N960        N  0.65115536  0.40626250  0.58924657    -0.43300
C961        C  0.67721336  0.49437742  0.80219773     0.00300
C962        C  0.67199579  0.02244585  0.83032896    -0.11600
C963        C  0.64248408  0.02372796  0.85920194     0.02500
C964        C  0.61774149  0.99425425  0.86039908     0.00200
C965        C  0.62166166  0.46763966  0.83239650    -0.11500
C966        C  0.65183290  0.46526711  0.80375756     0.02400
H967        H  0.69131653  0.04500096  0.83019776     0.15400
H968        H  0.60303649  0.44460717  0.83456172     0.15400
C969        C  0.65759958  0.43165036  0.77850616     0.37000
C970        C  0.63801886  0.05572120  0.88725983     0.36900
N971        N  0.66220017  0.40465964  0.75828755    -0.43300
N972        N  0.63432213  0.08141064  0.90961751    -0.43300
C973        C  0.81765247  0.49016114  0.70742784     0.00300
C974        C  0.84213023  0.01906225  0.71147457    -0.11600
C975        C  0.87187965  0.02277954  0.68301811     0.02500
C976        C  0.87640147  0.49917161  0.64881294     0.00200
C977        C  0.85371269  0.46829608  0.64602646    -0.11500
C978        C  0.82520530  0.46314167  0.67533396     0.02400
H979        H  0.83713765  0.04008004  0.73592369     0.15400
H980        H  0.85840627  0.44794725  0.62078283     0.15400
C981        C  0.80420188  0.42968360  0.67183459     0.37000
C982        C  0.89563333  0.05399357  0.68834281     0.36900
N983        N  0.78765899  0.40269191  0.66900631    -0.43300
N984        N  0.91446039  0.07912605  0.69330848    -0.43300
C985        C  0.87211425  0.50046734  0.86474100     0.00300
C986        C  0.87146011  0.46862860  0.83859184    -0.11600
C987        C  0.84277960  0.46553530  0.80864443     0.02500
C988        C  0.81542129  0.49547279  0.80342659     0.00200
C989        C  0.81572950  0.02602068  0.83293865    -0.11500
C990        C  0.84387250  0.02783022  0.86359417     0.02400
H991        H  0.89224318  0.44539235  0.84308218     0.15400
H992        H  0.79257057  0.04732010  0.83266132     0.15400
C993        C  0.84095774  0.05801649  0.89419717     0.37000
C994        C  0.84011022  0.43037892  0.78637110     0.36900
N995        N  0.83846546  0.08203333  0.91887814    -0.43300
N996        N  0.83763655  0.40202236  0.76892907    -0.43300
C997        C  0.99194143  0.12384626  0.64480082     0.00300
C998        C  0.95782102  0.14471383  0.65193844    -0.11600
C999        C  0.95572053  0.17385119  0.68172068     0.02500
C1000       C  0.98805389  0.18203973  0.70526689     0.00200
C1001       C  0.52641043  0.15961049  0.69733756    -0.11500
C1002       C  0.52760695  0.13107958  0.66675129     0.02400
H1003       H  0.93300019  0.13868899  0.63362697     0.15400
H1004       H  0.55214601  0.16660931  0.71336293     0.15400
C1005       C  0.56368791  0.11305805  0.65554539     0.37000
C1006       C  0.92052024  0.19588672  0.68670065     0.36900
N1007       N  0.59274292  0.09942599  0.64568551    -0.43300
N1008       N  0.89246351  0.21380564  0.69064861    -0.43300
C1009       C  0.50082423  0.11741541  0.85821034     0.00300
C1010       C  0.02401789  0.14298905  0.85739898    -0.11600
C1011       C  0.02446089  0.17266573  0.82872185     0.02500
C1012       C  0.99398133  0.17966524  0.80054562     0.00200
C1013       C  0.47326591  0.15159818  0.79805352    -0.11500
C1014       C  0.47327812  0.12110093  0.82599217     0.02400
H1015       H  0.04698998  0.13885389  0.87981943     0.15400
H1016       H  0.45049925  0.15564677  0.77541595     0.15400
C1017       C  0.44358640  0.09524581  0.82213564     0.37000
C1018       C  0.05680553  0.19549364  0.82862997     0.36900
N1019       N  0.41980566  0.07454474  0.81839305    -0.43300
N1020       N  0.08288390  0.21358366  0.82840031    -0.43300
C1021       C  0.99287458  0.32044059  0.70731734     0.00300
C1022       C  0.52579168  0.32145421  0.68244676    -0.11600
C1023       C  0.52816680  0.35067994  0.65352083     0.02500
C1024       C  0.99745526  0.38084128  0.64982489     0.00200
C1025       C  0.96689523  0.37983248  0.67782583    -0.11500
C1026       C  0.96402559  0.34952231  0.70579903     0.02400
H1027       H  0.54807725  0.29926434  0.68338374     0.15400
H1028       H  0.94411771  0.40145895  0.67599976     0.15400
C1029       C  0.92968319  0.34690566  0.72946910     0.37000
C1030       C  0.56069408  0.35024613  0.62635770     0.36900
N1031       N  0.90199605  0.34428636  0.74807862    -0.43300
N1032       N  0.58689781  0.34947387  0.60474604    -0.43300
C1033       C  0.98954868  0.37727820  0.86433791     0.00300
C1034       C  0.52188841  0.36773550  0.84000987    -0.11600
C1035       C  0.52258973  0.33852610  0.81027205     0.02500
C1036       C  0.98919797  0.31901628  0.80382440     0.00200
C1037       C  0.95849420  0.32575175  0.83120218    -0.11500
C1038       C  0.95851404  0.35444739  0.86140054     0.02400
H1039       H  0.54654397  0.38408497  0.84407217     0.15400
H1040       H  0.93479613  0.30782958  0.82959307     0.15400
C1041       C  0.92638614  0.36006637  0.88898239     0.37000
C1042       C  0.55720700  0.32907699  0.78788173     0.36900
N1043       N  0.90068599  0.36469168  0.91111807    -0.43300
N1044       N  0.58502771  0.32097313  0.77028555    -0.43300
O1045       O  0.49069088  0.89428497  0.43499523    -0.74900
O1046       O  0.49619505  0.93940563  0.38494672    -0.53800
C1047       C  0.99331706  0.90617521  0.39654532     0.78900
O1048       O  0.89420554  0.99966037  0.07760284    -0.59500
O1049       O  0.94097922  0.00408894  0.12650140    -0.52500
C1050       C  0.90627351  0.00125530  0.11583372     0.70900
O1051       O  0.89132880  0.50116261  0.43406047    -0.74000
O1052       O  0.93765880  0.49696507  0.38422804    -0.54600
C1053       C  0.90345669  0.99874771  0.39622843     0.76900
O1054       O  0.00099402  0.89693943  0.07813901    -0.59200
O1055       O  0.99760301  0.94450168  0.12669939    -0.52300
C1056       C  0.99911400  0.90948072  0.11619697     0.73500
Zr1057     Zr  0.50012872  0.92037581  0.50501564     2.54700
O1058       O  0.95148008  0.87341677  0.50973641    -0.79700
O1059       O  0.55208760  0.87414746  0.00271084    -0.93200
Zr1060     Zr  0.91740293  0.50383586  0.50507415     2.64700
O1061       O  0.86884857  0.95796613  0.50653896    -0.98100
O1062       O  0.87108549  0.55786272  0.01194823    -0.80200
O1063       O  0.95723725  0.96113251  0.46464125    -0.83500
O1064       O  0.96028770  0.96099293  0.04642721    -2.18200
O1065       O  0.60365398  0.98686924  0.07454519    -0.66900
O1066       O  0.55747480  0.99560702  0.12409206    -0.51500
C1067       C  0.59090628  0.49400089  0.11251631     0.71900
O1068       O  0.49605663  0.60189906  0.43121490    -0.59800
O1069       O  0.49184007  0.55456169  0.38297893    -0.51800
C1070       C  0.49383219  0.58944727  0.39316152     0.73700
O1071       O  0.99546931  0.60762433  0.07309990    -0.71200
O1072       O  0.99735777  0.56176032  0.12330033    -0.49900
C1073       C  0.49736862  0.59607490  0.11077619     0.75000
O1074       O  0.60091435  0.50090708  0.43432488    -0.66600
O1075       O  0.55427487  0.49640846  0.38515743    -0.53700
C1076       C  0.58894933  0.49920194  0.39608968     0.73400
Zr1077     Zr  0.57722116  0.99347503  0.00364212     2.77500
O1078       O  0.61853085  0.54692378  0.51455063    -0.97300
O1079       O  0.62814822  0.94471848  0.00004083    -0.78100
Zr1080     Zr  0.99399700  0.57971123  0.00284879     2.70100
O1081       O  0.54466840  0.62325222  0.00074168    -0.79400
O1082       O  0.94598498  0.62959226  0.50139312    -0.98500
Zr1083     Zr  0.49582651  0.49733371  0.42472592     2.21500
Zr1084     Zr  0.99848033  0.00178122  0.08533820     2.11100
O1085       O  0.53670697  0.53895075  0.04390664    -2.47100
O1086       O  0.53505211  0.53721776  0.46344729    -0.79200
O1087       O  0.53862447  0.95663360  0.04578019    -0.71400
O1088       O  0.95518595  0.54172302  0.46288189    -2.32300
O1089       O  0.53867068  0.95722593  0.46311979    -2.28500
O1090       O  0.95538585  0.54355370  0.04606806    -0.73100
H1091       H  0.94549192  0.94605469  0.06465595     0.78900
H1092       H  0.93928026  0.55733178  0.44462336     0.80000
H1093       H  0.55244047  0.55410394  0.06132878     0.82200
H1094       H  0.55426604  0.94119009  0.44486306     0.79800
H1095       H  0.84921704  0.54695178  0.52436178     0.42800
H1096       H  0.92860473  0.62370276  0.02979696     0.41800
H1097       H  0.56404103  0.61139811  0.51851715     0.41500
H1098       H  0.62096215  0.55627713  0.02868474     0.39400
H1099       H  0.65130293  0.95868923  0.99674993     0.42500
H1100       H  0.56302808  0.87747140  0.46942462     0.37300
H1101       H  0.93311759  0.88325674  0.53104544     0.43400
H1102       H  0.89091182  0.92886517  0.99021387     0.39900
H1103       H  0.64898500  0.52501591  0.00977589     0.44800
H1104       H  0.54681349  0.85246225  0.50454956     0.43500
H1105       H  0.87722876  0.93841971  0.48578439     0.43600
H1106       H  0.94856453  0.64829516  0.99684692     0.44000
C1107       C  0.99282851  0.78537182  0.27664321     0.02700
C1108       C  0.99171569  0.78594238  0.23227446     0.02700
C1109       C  0.99030601  0.75172277  0.21044035    -0.17800
C1110       C  0.99119176  0.71716729  0.23157870     0.02700
C1111       C  0.99402050  0.71641958  0.27584344     0.02700
C1112       C  0.99377767  0.75075288  0.29771081    -0.17800
H1113       H  0.99479269  0.75054421  0.33179847     0.04700
H1114       H  0.98929720  0.75190113  0.17634872     0.04700
C1115       C  0.78300203  0.99065103  0.23266671     0.02700
C1116       C  0.78256301  0.99089765  0.27704566     0.02700
C1117       C  0.74813088  0.98927438  0.29829083    -0.17800
C1118       C  0.71369408  0.98841160  0.27669424     0.02700
C1119       C  0.71391324  0.98928326  0.23233796     0.02700
C1120       C  0.74843339  0.99056052  0.21110669    -0.17800
H1121       H  0.74833062  0.99164538  0.17703182     0.03100
H1122       H  0.74810954  0.98921664  0.33240734     0.04700
C1123       C  0.67941552  0.98778416  0.20628000     0.00300
C1124       C  0.67758497  0.95779317  0.17767092    -0.11600
C1125       C  0.64908595  0.95748785  0.14735015     0.02500
C1126       C  0.62076665  0.98689865  0.14641753     0.00200
C1127       C  0.61989503  0.51983192  0.17633411    -0.11500
C1128       C  0.64910475  0.52055807  0.20595461     0.02400
H1129       H  0.69952065  0.93523774  0.17799890     0.15400
H1130       H  0.59847736  0.54282914  0.17535457     0.15400
C1131       C  0.65111871  0.55365592  0.23204391     0.37000
C1132       C  0.64993582  0.92689163  0.11737978     0.36900
N1133       N  0.65231887  0.58062975  0.25236066    -0.43300
N1134       N  0.65122468  0.90234031  0.09335587    -0.43300
C1135       C  0.67865644  0.99053863  0.30232562     0.00300
C1136       C  0.67148316  0.52692113  0.32994231    -0.11600
C1137       C  0.64213263  0.52934943  0.35921475     0.02500
C1138       C  0.61751374  0.49978933  0.36241977     0.00200
C1139       C  0.62300967  0.96407886  0.33263183    -0.11500
C1140       C  0.65306249  0.96154869  0.30379779     0.02400
H1141       H  0.69080339  0.54942547  0.32832985     0.15400
H1142       H  0.60396110  0.94137646  0.33459965     0.15400
C1143       C  0.65820996  0.92807130  0.27816658     0.37000
C1144       C  0.63776377  0.56269096  0.38520816     0.36900
N1145       N  0.66200019  0.90106542  0.25782372    -0.43300
N1146       N  0.63456039  0.58973855  0.40554174    -0.43300
C1147       C  0.81826545  0.99049230  0.20716664     0.00300
C1148       C  0.84150148  0.51941705  0.21181811    -0.11600
C1149       C  0.87170716  0.52246706  0.18382533     0.02500
C1150       C  0.87796417  0.99742445  0.14941272     0.00200
C1151       C  0.85393008  0.96765477  0.14598233    -0.11500
C1152       C  0.82501219  0.96344693  0.17496719     0.02400
H1153       H  0.83678737  0.54041027  0.23634088     0.15400
H1154       H  0.85793891  0.94737844  0.12056419     0.15400
C1155       C  0.80287275  0.93074838  0.17137060     0.37000
C1156       C  0.89649582  0.55281203  0.18960255     0.36900
N1157       N  0.78525347  0.90445425  0.16886480    -0.43300
N1158       N  0.91649135  0.57700474  0.19459019    -0.43300
C1159       C  0.87463961  0.99839656  0.36310558     0.00300
C1160       C  0.87414761  0.96741462  0.33567634    -0.11600
C1161       C  0.84482304  0.96467344  0.30641521     0.02500
C1162       C  0.81674760  0.99417824  0.30309476     0.00200
C1163       C  0.81718045  0.52577293  0.33013846    -0.11500
C1164       C  0.84564670  0.52743831  0.36023811     0.02400
H1165       H  0.89545319  0.94445452  0.33875613     0.15400
H1166       H  0.79524896  0.54828680  0.32864737     0.15400
C1167       C  0.84516909  0.55948221  0.38833518     0.37000
C1168       C  0.84211087  0.93015184  0.28294133     0.36900
N1169       N  0.84492824  0.58511087  0.41088436    -0.43300
N1170       N  0.83931450  0.90238983  0.26442387    -0.43300
C1171       C  0.99569577  0.62531173  0.14442709     0.00300
C1172       C  0.96079227  0.64314879  0.15507837    -0.11600
C1173       C  0.95848450  0.67178856  0.18534553     0.02500
C1174       C  0.99158309  0.68274987  0.20554570     0.00200
C1175       C  0.52724811  0.66529724  0.19375007    -0.11500
C1176       C  0.52976798  0.63766645  0.16215952     0.02400
H1177       H  0.93536829  0.63507853  0.13915687     0.15400
H1178       H  0.55280679  0.67601228  0.20687802     0.15400
C1179       C  0.56660425  0.62446294  0.14721983     0.37000
C1180       C  0.92203067  0.69015664  0.19442104     0.36900
N1181       N  0.59618384  0.61441679  0.13491268    -0.43300
N1182       N  0.89273164  0.70473875  0.20160020    -0.43300
C1183       C  0.49421019  0.61784269  0.35915078     0.00300
C1184       C  0.02692606  0.64439523  0.35798829    -0.11600
C1185       C  0.02778045  0.67384339  0.32898321     0.02500
C1186       C  0.99733373  0.68092920  0.30078197     0.00200
C1187       C  0.46410046  0.65369880  0.30161079    -0.11500
C1188       C  0.46479946  0.62287579  0.32923246     0.02400
H1189       H  0.04988120  0.64005133  0.38038972     0.15400
H1190       H  0.44028621  0.65863023  0.28057357     0.15400
C1191       C  0.43430617  0.59780574  0.32730494     0.37000
C1192       C  0.06023226  0.69658054  0.32871431     0.36900
N1193       N  0.40993883  0.57763694  0.32509726    -0.43300
N1194       N  0.08620556  0.71481957  0.32820117    -0.43300
C1195       C  0.99448908  0.82083764  0.20712742     0.00300
C1196       C  0.52503365  0.82145795  0.18268275    -0.11600
C1197       C  0.52758214  0.85045396  0.15342729     0.02500
C1198       C  0.99910980  0.88092185  0.14982478     0.00200
C1199       C  0.96801090  0.87958421  0.17699888    -0.11500
C1200       C  0.96515980  0.84936075  0.20498262     0.02400
H1201       H  0.54777305  0.79980778  0.18480107     0.15400
H1202       H  0.94496593  0.90087841  0.17457225     0.15400
C1203       C  0.93068331  0.84638962  0.22834972     0.37000
C1204       C  0.56085219  0.85064208  0.12748212     0.36900
N1205       N  0.90297825  0.84349792  0.24685024    -0.43300
N1206       N  0.58758438  0.85042772  0.10673628    -0.43300
C1207       C  0.99135556  0.87774372  0.36324438     0.00300
C1208       C  0.51921026  0.86966156  0.33629883    -0.11600
C1209       C  0.51911411  0.83987880  0.30741757     0.02500
C1210       C  0.99182293  0.81982635  0.30282523     0.00200
C1211       C  0.96069688  0.82647924  0.32952837    -0.11500
C1212       C  0.96035679  0.85494678  0.35984916     0.02400
H1213       H  0.54404132  0.88593826  0.33923679     0.15400
H1214       H  0.93708356  0.80847162  0.32750224     0.15400
C1215       C  0.92807222  0.86005703  0.38728058     0.37000
C1216       C  0.55336963  0.82995611  0.28456602     0.36900
N1217       N  0.90223412  0.86406070  0.40931152    -0.43300
N1218       N  0.58104727  0.82178017  0.26672931    -0.43300
O1219       O  0.49176150  0.89353138  0.93486305    -0.74900
O1220       O  0.49751692  0.93882892  0.88504751    -0.53800
C1221       C  0.99403519  0.90464539  0.89793090     0.78900
O1222       O  0.89269568  0.00102300  0.57706298    -0.59500
O1223       O  0.93968032  0.00339585  0.62614186    -0.52500
C1224       C  0.90487773  0.00152278  0.61534014     0.70900
O1225       O  0.88912528  0.50459777  0.93614448    -0.74000
O1226       O  0.93547464  0.49819493  0.88642186    -0.54600
C1227       C  0.90311374  0.99988224  0.89740202     0.76900
O1228       O  0.00053199  0.89555720  0.57691874    -0.59200
O1229       O  0.99692297  0.94288971  0.62576673    -0.52300
C1230       C  0.99899459  0.90787435  0.61509232     0.73500
Zr1231     Zr  0.49814340  0.91957032  0.00571763     2.54700
O1232       O  0.96420458  0.86631231  0.01064493    -0.79700
O1233       O  0.55619822  0.87771386  0.49957475    -0.93200
Zr1234     Zr  0.91664228  0.50420474  0.00656994     2.64700
O1235       O  0.87604020  0.95016362  0.00340459    -0.98100
O1236       O  0.86869750  0.55493580  0.50461719    -0.80200
O1237       O  0.95957502  0.95952971  0.96547011    -0.83500
O1238       O  0.95775307  0.96187584  0.54592543    -2.18200
O1239       O  0.60258634  0.98835651  0.57411146    -0.66900
O1240       O  0.55617560  0.99573576  0.62353219    -0.51500
C1241       C  0.58939886  0.49042453  0.61421432     0.71900
O1242       O  0.49572453  0.60228500  0.93024749    -0.59800
O1243       O  0.49094332  0.55500949  0.88205898    -0.51800
C1244       C  0.49300888  0.58993590  0.89220777     0.73700
O1245       O  0.99555546  0.60697074  0.57259143    -0.71200
O1246       O  0.99821499  0.56090250  0.62256561    -0.49900
C1247       C  0.49258131  0.59494544  0.61207623     0.75000
O1248       O  0.60047267  0.49929876  0.93188998    -0.66600
O1249       O  0.55331715  0.49546988  0.88318695    -0.53700
C1250       C  0.58816369  0.49772067  0.89378156     0.73400
Zr1251     Zr  0.57652397  0.99669597  0.50346318     2.77500
O1252       O  0.62560048  0.54047936  0.00331161    -0.97300
O1253       O  0.62619600  0.94688493  0.49731066    -0.78100
Zr1254     Zr  0.99570027  0.57945852  0.50228558     2.70100
O1255       O  0.54209205  0.62420238  0.50420126    -0.79400
O1256       O  0.93842667  0.62321195  0.00068723    -0.98500
Zr1257     Zr  0.49527037  0.49751764  0.92377117     2.21500
Zr1258     Zr  0.99741510  0.00089663  0.58536620     2.11100
O1259       O  0.53519674  0.53895957  0.54557966    -2.47100
O1260       O  0.53541731  0.53681563  0.96209549    -0.79200
O1261       O  0.53903030  0.95863239  0.54534130    -0.71400
O1262       O  0.95390178  0.54177082  0.96356436    -2.32300
O1263       O  0.53778420  0.95516777  0.96365869    -2.28500
O1264       O  0.95619773  0.54323751  0.54451392    -0.73100
H1265       H  0.94279136  0.94716658  0.56413902     0.78900
H1266       H  0.93795515  0.55746173  0.94536002     0.80000
H1267       H  0.55042764  0.55406601  0.56347387     0.82200
H1268       H  0.55295515  0.93856959  0.94558077     0.79800
H1269       H  0.87751393  0.57046203  0.03864537     0.42800
H1270       H  0.93189072  0.62562407  0.47497332     0.41800
H1271       H  0.56581274  0.60984732  0.98559790     0.41500
H1272       H  0.64302161  0.53366088  0.52163395     0.39400
H1273       H  0.64913596  0.95825858  0.50820592     0.42500
H1274       H  0.54282376  0.85092617  0.01501821     0.37300
H1275       H  0.98104108  0.84498986  0.00060058     0.43400
H1276       H  0.84650714  0.97119758  0.49341864     0.39900
H1277       H  0.62216985  0.55691195  0.48597646     0.44800
H1278       H  0.56998561  0.88324319  0.02389769     0.43500
H1279       H  0.87307999  0.94235920  0.03297277     0.43600
H1280       H  0.92840973  0.62279255  0.52386884     0.44000
C1281       C  0.99160912  0.78390500  0.77669138     0.02700
C1282       C  0.99103333  0.78464356  0.73214399     0.02700
C1283       C  0.99010049  0.75042519  0.71017179    -0.17800
C1284       C  0.99146664  0.71578350  0.73106101     0.02700
C1285       C  0.99412037  0.71480829  0.77526667     0.02700
C1286       C  0.99303522  0.74903176  0.79739136    -0.17800
H1287       H  0.99394931  0.74850893  0.83147302     0.04700
H1288       H  0.98919957  0.75066743  0.67607042     0.04700
C1289       C  0.78237721  0.98999265  0.73290506     0.02700
C1290       C  0.78172552  0.99231333  0.77736475     0.02700
C1291       C  0.74692867  0.99202825  0.79819458    -0.17800
C1292       C  0.71259246  0.99060108  0.77640059     0.02700
C1293       C  0.71304057  0.98965871  0.73194810     0.02700
C1294       C  0.74789988  0.98957430  0.71112956    -0.17800
H1295       H  0.74815053  0.98971027  0.67703689     0.03100
H1296       H  0.74655822  0.99294368  0.83229427     0.04700
C1297       C  0.67860398  0.98776692  0.70535339     0.00300
C1298       C  0.67829313  0.95924202  0.67455896    -0.11600
C1299       C  0.64957119  0.95878429  0.64444740     0.02500
C1300       C  0.61942607  0.98631336  0.64595071     0.00200
C1301       C  0.61809113  0.51471488  0.67901642    -0.11500
C1302       C  0.64857390  0.51692453  0.70675370     0.02400
H1303       H  0.70141812  0.93794384  0.67315035     0.15400
H1304       H  0.59521143  0.53617984  0.68011535     0.15400
C1305       C  0.65024120  0.55037814  0.73234781     0.37000
C1306       C  0.65182220  0.92988741  0.61236407     0.36900
N1307       N  0.65122009  0.57769567  0.75211851    -0.43300
N1308       N  0.65390302  0.90678644  0.58660582    -0.43300
C1309       C  0.67755527  0.99216309  0.80208545     0.00300
C1310       C  0.67122454  0.52570137  0.82897161    -0.11600
C1311       C  0.64111215  0.52814420  0.85729304     0.02500
C1312       C  0.61665588  0.49844253  0.86002398     0.00200
C1313       C  0.62197645  0.96465691  0.83113501    -0.11500
C1314       C  0.65195470  0.96315148  0.80229340     0.02400
H1315       H  0.69044947  0.54831026  0.82786181     0.15400
H1316       H  0.60297404  0.94186483  0.83216754     0.15400
C1317       C  0.65720550  0.93046941  0.77546113     0.37000
C1318       C  0.63539954  0.56174686  0.88269640     0.36900
N1319       N  0.66125032  0.90419663  0.75400110    -0.43300
N1320       N  0.63058705  0.58884652  0.90269797    -0.43300
C1321       C  0.81756124  0.98967738  0.70724758     0.00300
C1322       C  0.84161719  0.52010698  0.71153437    -0.11600
C1323       C  0.87133575  0.52433888  0.68309387     0.02500
C1324       C  0.87666279  0.99739960  0.64891018     0.00200
C1325       C  0.85336425  0.96702155  0.64597362    -0.11500
C1326       C  0.82446804  0.96260477  0.67497250     0.02400
H1327       H  0.83626810  0.54105500  0.73597867     0.15400
H1328       H  0.85768927  0.94666863  0.62067068     0.15400
C1329       C  0.80220163  0.93002812  0.67068276     0.37000
C1330       C  0.89507510  0.55548112  0.68903183     0.36900
N1331       N  0.78450996  0.90386751  0.66709343    -0.43300
N1332       N  0.91398318  0.58042748  0.69476581    -0.43300
C1333       C  0.87400655  0.00022382  0.86431779     0.00300
C1334       C  0.87521476  0.97113938  0.83434433    -0.11600
C1335       C  0.84584563  0.96816205  0.80516894     0.02500
C1336       C  0.81587162  0.99599187  0.80400250     0.00200
C1337       C  0.81710212  0.52786559  0.82854947    -0.11500
C1338       C  0.84468052  0.53029170  0.85962114     0.02400
H1339       H  0.89792617  0.94938830  0.83548311     0.15400
H1340       H  0.79573625  0.55070836  0.82494584     0.15400
C1341       C  0.84415096  0.56359353  0.88582045     0.37000
C1342       C  0.84526061  0.93454540  0.77980751     0.36900
N1343       N  0.84358393  0.59037358  0.90665328    -0.43300
N1344       N  0.84446693  0.90737187  0.75981625    -0.43300
C1345       C  0.99606261  0.62423534  0.64383108     0.00300
C1346       C  0.96122710  0.64233964  0.65405720    -0.11600
C1347       C  0.95891693  0.67082319  0.68441490     0.02500
C1348       C  0.99198585  0.68153000  0.70484752     0.00200
C1349       C  0.52103378  0.66171610  0.69803399    -0.11500
C1350       C  0.52353798  0.63323983  0.66751923     0.02400
H1351       H  0.93586503  0.63453146  0.63781338     0.15400
H1352       H  0.54636780  0.66994979  0.71401400     0.15400
C1353       C  0.56028047  0.61622493  0.65730100     0.37000
C1354       C  0.92249259  0.68927847  0.69341848     0.36900
N1355       N  0.58999429  0.60339296  0.64874656    -0.43300
N1356       N  0.89324170  0.70395875  0.70060125    -0.43300
C1357       C  0.49317905  0.61861115  0.85831654     0.00300
C1358       C  0.02692036  0.64330976  0.85790111    -0.11600
C1359       C  0.02793644  0.67252960  0.82865308     0.02500
C1360       C  0.99781564  0.67917802  0.79992819     0.00200
C1361       C  0.46443466  0.65293825  0.79875752    -0.11500
C1362       C  0.46550280  0.62186587  0.82617936     0.02400
H1363       H  0.04955270  0.63936846  0.88076497     0.15400
H1364       H  0.44178249  0.65640619  0.77591490     0.15400
C1365       C  0.43716307  0.59459569  0.82162676     0.37000
C1366       C  0.06009391  0.69564699  0.82892171     0.36900
N1367       N  0.41462070  0.57261135  0.81747185    -0.43300
N1368       N  0.08586298  0.71416686  0.82897043    -0.43300
C1369       C  0.99415469  0.81941262  0.70666393     0.00300
C1370       C  0.52621210  0.82201461  0.68213447    -0.11600
C1371       C  0.52967779  0.85143430  0.65354095     0.02500
C1372       C  0.99924309  0.87918827  0.64875627     0.00200
C1373       C  0.96874243  0.87873747  0.67689983    -0.11500
C1374       C  0.96573882  0.84884409  0.70531726     0.02400
H1375       H  0.54897624  0.80048135  0.68508455     0.15400
H1376       H  0.94625181  0.90066277  0.67510594     0.15400
C1377       C  0.93198689  0.84731715  0.73022202     0.37000
C1378       C  0.56406257  0.85249270  0.62954953     0.36900
N1379       N  0.90491340  0.84558551  0.75012903    -0.43300
N1380       N  0.59175064  0.85303236  0.61049140    -0.43300
C1381       C  0.99141561  0.87567969  0.86494703     0.00300
C1382       C  0.52115971  0.86967912  0.83552758    -0.11600
C1383       C  0.52072417  0.84056715  0.80573455     0.02500
C1384       C  0.99063578  0.81812590  0.80361548     0.00200
C1385       C  0.96137268  0.82286358  0.83321795    -0.11500
C1386       C  0.96189787  0.85080785  0.86422225     0.02400
H1387       H  0.54612842  0.88569633  0.83890699     0.15400
H1388       H  0.93872372  0.80362133  0.83302866     0.15400
C1389       C  0.93216139  0.85297376  0.89521949     0.37000
C1390       C  0.55486717  0.83092003  0.78254966     0.36900
N1391       N  0.90843373  0.85436002  0.92016621    -0.43300
N1392       N  0.58255332  0.82316696  0.76453319    -0.43300
loop_ 
_geom_bond_atom_site_label_1 
_geom_bond_atom_site_label_2 
_geom_bond_distance 
_geom_bond_site_symmetry_2 
_ccdc_geom_bond_type 
O1          Zr13   2.439       .  S
O1          C699   1.287       .  A
O2         Zr387   2.415       .  S
O2          C699   1.284       .  A
C3          O697   1.289       .  A
C3          O698   1.284       .  A
C3          C163   1.473       .  S
O4         Zr538   2.457       .  S
O4            C6   1.291       .  A
O5          Zr40   2.426       .  S
O5            C6   1.285       .  A
C6          C106   1.482       .  S
O7          Zr16   2.443       .  S
O7          C357   1.288       .  A
O8         Zr735   2.414       .  S
O8          C357   1.284   1_565  A
C9          O355   1.287       .  A
C9          O356   1.285       .  A
C9          C115   1.470       .  S
O10        Zr883   2.448       .  S
O10          C12   1.289       .  A
O11         Zr40   2.445       .  S
O11          C12   1.289       .  A
C12         C154   1.485       .  S
Zr13        O880   2.454       .  S
Zr13         O45   2.379   1_655  S
Zr13        O715   2.370       .  S
Zr13        O890   2.366       .  S
Zr13        O217   2.366   1_655  S
Zr13        O710   2.435       .  S
Zr13        O189   2.434   1_655  S
O14        Zr709   2.434       .  S
O14          H57   0.990       .  S
O15        Zr187   2.434   1_455  S
O15         H230   0.990       .  S
O15         H234   0.990       .  S
Zr16        O526   2.452   1_545  S
Zr16         O44   2.376       .  S
Zr16        O542   2.372   1_545  S
Zr16        O367   2.374   1_545  S
Zr16        O220   2.368       .  S
Zr16        O365   2.436   1_545  S
Zr16        O192   2.435       .  S
O17        Zr364   2.435       .  S
O17          H61   0.990       .  S
O17         H232   0.990       .  S
O18        Zr190   2.435       .  S
O18         H225   0.990   1_554  S
O19        Zr709   2.369       .  S
O19        Zr364   2.375       .  S
O19       Zr1083   2.384       .  S
O20         Zr40   2.381       .  S
O20        Zr883   2.370       .  S
O20        Zr538   2.366       .  S
O20          H47   0.963       .  S
O21         Zr33   2.438       .  S
O21         C371   1.288       .  A
O22        Zr736   2.415   1_455  S
O22         C371   1.284       .  A
C23         O369   1.288       .  A
C23         O370   1.282       .  A
C23         C430   1.468       .  S
O24        Zr906   2.456       .  S
O24          C26   1.290       .  A
O25         Zr39   2.434   1_545  S
O25          C26   1.287       .  A
C26         C139   1.485       .  S
O27         Zr36   2.444       .  S
O27         C725   1.288       .  A
O28        Zr388   2.431   1_545  S
O28         C725   1.287       .  A
C29         O723   1.289       .  A
C29         O724   1.286       .  A
C29         C823   1.472       .  S
O30        Zr555   2.449       .  S
O30          C32   1.290       .  A
O31         Zr39   2.429   1_455  S
O31          C32   1.286       .  A
C32          C94   1.481       .  S
Zr33        O552   2.442   1_554  S
Zr33         O43   2.372       .  S
Zr33        O389   2.371       .  S
Zr33        O564   2.372   1_554  S
Zr33        O219   2.367   1_554  S
Zr33         O35   2.436       .  S
Zr33        O556   2.435       .  S
O34        Zr555   2.436   1_545  S
O34         H228   0.990       .  S
O34         H233   0.990       .  S
O35          H55   0.990   1_554  S
Zr36        O894   2.456   1_554  S
Zr36         O46   2.382       .  S
Zr36        O912   2.367   1_554  S
Zr36        O737   2.376       .  S
Zr36        O218   2.377   1_554  S
Zr36        O733   2.435       .  S
Zr36        O212   2.437   1_554  S
O37        Zr732   2.435   1_455  S
O37         H227   0.990       .  S
O38        Zr210   2.438       .  S
O38         H226   0.990       .  S
O38         H236   0.990       .  S
Zr39        O350   2.407       .  S
Zr39        O704   2.410       .  S
Zr39         O42   2.374   1_665  S
Zr39       O1063   2.386       .  S
Zr39        O740   2.386   1_565  S
Zr39        O393   2.385   1_655  S
Zr40        O718   2.408       .  S
Zr40        O376   2.424       .  S
Zr40       O1085   2.394       .  S
Zr40        O739   2.383       .  S
Zr40        O394   2.384       .  S
O41        Zr381   2.371   1_545  S
O41        Zr732   2.375   1_455  S
O41       Zr1084   2.392   1_455  S
O41          H49   0.967       .  S
O42        Zr555   2.370   1_545  S
O42        Zr906   2.370   1_455  S
O43        Zr187   2.368   1_455  S
O43        Zr736   2.382   1_455  S
O44        Zr210   2.369       .  S
O44        Zr735   2.385   1_545  S
O44          H48   0.962       .  S
O45        Zr207   2.372       .  S
O45        Zr387   2.392   1_455  S
O45          H50   0.966       .  S
O46        Zr190   2.371       .  S
O46        Zr388   2.387   1_545  S
H51         O192   0.990       .  S
H52         O212   0.990       .  S
H53         O211   0.990       .  S
H54         O208   0.990       .  S
H56         O189   0.990       .  S
H58         O191   0.990   1_556  S
H59         O208   0.990   1_556  S
H60         O189   0.990       .  S
H62         O212   0.990   1_554  S
C63         C166   1.485       .  S
C63          C64   1.415       .  A
C63          C68   1.406       .  A
C64         C151   1.491       .  S
C64          C65   1.404       .  A
C65          C66   1.406       .  A
C65          H70   1.085       .  S
C66         C130   1.479       .  S
C66          C67   1.414       .  A
C67         C142   1.499       .  S
C67          C68   1.406       .  A
C68          H69   1.085       .  S
C71         C103   1.490       .  S
C71          C72   1.412       .  A
C71          C76   1.402       .  A
C72         C118   1.478       .  S
C72          C73   1.402       .  A
C73          C74   1.401       .  A
C73          H78   1.085       .  S
C74          C91   1.487       .  S
C74          C75   1.414       .  A
C75          C79   1.483       .  S
C75          C76   1.405       .  A
C76          H77   1.085       .  S
C79          C80   1.405       .  A
C79         C432   1.413       .  A
C80          C81   1.394       .  A
C80          H85   1.085       .  S
C81          C82   1.408       .  A
C81          C88   1.444       .  S
C82         C371   1.471       .  S
C82         C431   1.403       .  A
C83          C84   1.399       .  A
C83         C430   1.402   1_545  A
C83          H86   1.083       .  S
C84         C427   1.411   1_545  A
C84          C87   1.443       .  S
C87          N89   1.157       .  T
C88          N90   1.157       .  T
C91          C96   1.412       .  A
C91         C440   1.405       .  A
C92          C93   1.396       .  A
C92         C439   1.406   1_545  A
C92          H97   1.085       .  S
C93          C94   1.408   1_545  A
C93         C100   1.444       .  S
C94         C443   1.406       .  A
C95          C96   1.405       .  A
C95         C442   1.405       .  A
C95          H98   1.085       .  S
C96          C99   1.443       .  S
C99         N101   1.157       .  T
C100        N102   1.157       .  T
C103        C108   1.413       .  A
C103        C452   1.405       .  A
C104        C105   1.405       .  A
C104        C451   1.406   1_545  A
C104        H109   1.084       .  S
C105        C454   1.412   1_545  A
C105        C112   1.442       .  S
C106        C107   1.402       .  A
C106        C453   1.414       .  A
C107        C108   1.397       .  A
C107        H110   1.085       .  S
C108        C111   1.444       .  S
C111        N113   1.157       .  T
C112        N114   1.157       .  T
C115        C116   1.405       .  A
C115        C468   1.409       .  A
C116        C117   1.403       .  A
C116        H121   1.085       .  S
C117        C118   1.410       .  A
C117        C124   1.443       .  S
C118        C467   1.401       .  A
C119        C120   1.395       .  A
C119        C466   1.403   1_545  A
C119        H122   1.085       .  S
C120        C463   1.409       .  A
C120        C123   1.445       .  S
C123        N125   1.157       .  T
C124        N126   1.157       .  T
C127        C725   1.473       .  S
C127        C128   1.401       .  A
C127        C828   1.411       .  A
C128        C129   1.399       .  A
C128        H133   1.085       .  S
C129        C130   1.411       .  A
C129        C136   1.444       .  S
C130        C827   1.401       .  A
C131        C132   1.402       .  A
C131        C826   1.402   1_455  A
C131        H134   1.085       .  S
C132        C823   1.410   1_455  A
C132        C135   1.443       .  S
C135        N137   1.157       .  T
C136        N138   1.157       .  T
C139        C144   1.414       .  A
C139        C836   1.403   1_655  A
C140        C141   1.401       .  A
C140        C835   1.402       .  A
C140        H145   1.085       .  S
C141        C142   1.416       .  A
C141        C148   1.445       .  S
C142        C839   1.407       .  A
C143        C144   1.407       .  A
C143        C838   1.404       .  A
C143        H146   1.084       .  S
C144        C147   1.441       .  S
C147        N149   1.156       .  T
C148        N150   1.157       .  T
C151        C156   1.411       .  A
C151        C848   1.402       .  A
C152        C153   1.400       .  A
C152        C847   1.406   1_455  A
C152        H157   1.085       .  S
C153        C850   1.410   1_455  A
C153        C160   1.443       .  S
C154        C155   1.408       .  A
C154        C849   1.411       .  A
C155        C156   1.410       .  A
C155        H158   1.085       .  S
C156        C159   1.442       .  S
C159        N161   1.157       .  T
C160        N162   1.157       .  T
C163        C168   1.408       .  A
C163        C860   1.403       .  A
C164        C165   1.400       .  A
C164        C859   1.402   1_455  A
C164        H169   1.085       .  S
C165        C862   1.410   1_455  A
C165        C172   1.443       .  S
C166        C167   1.405       .  A
C166        C861   1.413       .  A
C167        C168   1.399       .  A
C167        H170   1.085       .  S
C168        C171   1.445       .  S
C171        N173   1.157       .  T
C172        N174   1.157       .  T
O175       Zr187   2.447   1_556  S
O175        C873   1.289       .  A
O176       Zr561   2.418       .  S
O176        C873   1.284       .  A
C177        O871   1.288       .  A
C177        O872   1.285       .  A
C177        C337   1.472       .  S
O178       Zr364   2.452       .  S
O178        C180   1.291       .  A
O179       Zr214   2.425       .  S
O179        C180   1.285       .  A
C180        C280   1.481       .  S
O181       Zr190   2.449   1_556  S
O181        C531   1.289   1_545  A
O182       Zr909   2.415       .  S
O182        C531   1.283       .  A
C183        O529   1.289       .  A
C183        O530   1.284       .  A
C183        C289   1.473       .  S
O184       Zr709   2.452       .  S
O184        C186   1.290       .  A
O185       Zr214   2.441       .  S
O185        C186   1.288       .  A
C186        C328   1.486       .  S
Zr187       O706   2.454       .  S
Zr187       O889   2.374   1_554  S
Zr187       O716   2.368       .  S
Zr187       O219   2.367   1_654  S
Zr187       O884   2.434       .  S
O188       Zr883   2.434       .  S
O188        H231   0.990       .  S
Zr190       O352   2.452       .  S
Zr190       O368   2.371   1_545  S
Zr190       O541   2.371   1_544  S
Zr190       O218   2.376   1_554  S
Zr190       O539   2.436   1_545  S
O191       Zr538   2.437       .  S
O191        H235   0.990       .  S
O193       Zr883   2.372   1_556  S
O193       Zr538   2.372   1_556  S
O193      Zr1257   2.385       .  S
O194       Zr709   2.367       .  S
O194       Zr364   2.366       .  S
O194       Zr214   2.380       .  S
O194        H221   0.964       .  S
O195       Zr207   2.438       .  S
O195        C545   1.288       .  A
O196       Zr910   2.413   1_455  S
O196        C545   1.284       .  A
C197        O543   1.289       .  A
C197        O544   1.285       .  A
C197        C604   1.473       .  S
O198       Zr732   2.457   1_556  S
O198        C200   1.291       .  A
O199       Zr213   2.437   1_545  S
O199        C200   1.288       .  A
C200        C313   1.487       .  S
O201       Zr210   2.444       .  S
O201        C899   1.287       .  A
O202       Zr562   2.424       .  S
O202        C899   1.286       .  A
C203        O897   1.287       .  A
C203        O898   1.286       .  A
C203        C997   1.472       .  S
O204       Zr381   2.449   1_556  S
O204        C206   1.290       .  A
O205       Zr213   2.425   1_455  S
O205        C206   1.285       .  A
C206        C268   1.478       .  S
Zr207       O378   2.447       .  S
Zr207       O563   2.371       .  S
Zr207       O390   2.368       .  S
Zr207       O217   2.378       .  S
Zr207       O382   2.437       .  S
Zr207       O209   2.434       .  S
O208       Zr381   2.437   1_545  S
O209        H229   0.989       .  S
Zr210       O720   2.457       .  S
Zr210       O738   2.374       .  S
Zr210       O911   2.380       .  S
Zr210       O220   2.379       .  S
Zr210       O907   2.436       .  S
O211       Zr906   2.435   1_455  S
Zr213       O524   2.418       .  S
Zr213       O878   2.419       .  S
Zr213      O1237   2.383       .  S
Zr213       O216   2.383   1_665  S
Zr213       O914   2.385   1_565  S
Zr213       O567   2.391   1_655  S
Zr214       O892   2.414       .  S
Zr214       O550   2.423       .  S
Zr214      O1259   2.391       .  S
Zr214       O913   2.385       .  S
Zr214       O568   2.385       .  S
O215       Zr555   2.375   1_545  S
O215       Zr906   2.375   1_455  S
O215      Zr1258   2.389   1_455  S
O215        H223   0.966       .  S
O216       Zr381   2.370   1_546  S
O216       Zr732   2.372   1_456  S
O217       Zr910   2.385   1_455  S
O218       Zr909   2.388   1_545  S
O218        H222   0.964       .  S
O219       Zr561   2.381   1_455  S
O219        H224   0.964       .  S
O220       Zr562   2.384       .  S
C237        C340   1.479       .  S
C237        C238   1.415       .  A
C237        C242   1.405       .  A
C238        C325   1.495       .  S
C238        C239   1.404       .  A
C239        C240   1.405       .  A
C239        H244   1.085       .  S
C240        C304   1.479       .  S
C240        C241   1.413       .  A
C241        C316   1.496       .  S
C241        C242   1.404       .  A
C242        H243   1.085       .  S
C245        C277   1.492       .  S
C245        C246   1.413       .  A
C245        C250   1.402       .  A
C246        C292   1.480       .  S
C246        C247   1.403       .  A
C247        C248   1.402       .  A
C247        H252   1.085       .  S
C248        C265   1.486       .  S
C248        C249   1.413       .  A
C249        C253   1.483       .  S
C249        C250   1.403       .  A
C250        H251   1.085       .  S
C253        C254   1.406       .  A
C253        C606   1.411       .  A
C254        C255   1.395       .  A
C254        H259   1.085       .  S
C255        C256   1.409       .  A
C255        C262   1.445       .  S
C256        C545   1.471       .  S
C256        C605   1.403       .  A
C257        C604   1.402   1_545  A
C257        C258   1.401       .  A
C257        H260   1.081       .  S
C258        C601   1.412   1_545  A
C258        C261   1.443       .  S
C261        N263   1.157       .  T
C262        N264   1.157       .  T
C265        C614   1.404       .  A
C265        C270   1.413       .  A
C266        C613   1.405   1_545  A
C266        C267   1.396       .  A
C266        H271   1.085       .  S
C267        C268   1.408   1_545  A
C267        C274   1.444       .  S
C268        C617   1.406       .  A
C269        C616   1.406       .  A
C269        C270   1.407       .  A
C269        H272   1.085       .  S
C270        C273   1.443       .  S
C273        N275   1.157       .  T
C274        N276   1.157       .  T
C277        C626   1.406       .  A
C277        C282   1.414       .  A
C278        C625   1.407   1_545  A
C278        C279   1.406       .  A
C278        H283   1.084       .  S
C279        C628   1.412   1_545  A
C279        C286   1.443       .  S
C280        C627   1.414       .  A
C280        C281   1.401       .  A
C281        C282   1.396       .  A
C281        H284   1.085       .  S
C282        C285   1.445       .  S
C285        N287   1.157       .  T
C286        N288   1.157       .  T
C289        C290   1.407       .  A
C289        C642   1.409       .  A
C290        C291   1.405       .  A
C290        H295   1.085       .  S
C291        C292   1.410       .  A
C291        C298   1.443       .  S
C292        C641   1.402       .  A
C293        C640   1.403   1_545  A
C293        C294   1.395       .  A
C293        H296   1.085       .  S
C294        C637   1.408   1_545  A
C294        C297   1.444       .  S
C297        N299   1.157       .  T
C298        N300   1.157       .  T
C301        C899   1.470       .  S
C301        C302   1.401       .  A
C301       C1002   1.410       .  A
C302        C303   1.399       .  A
C302        H307   1.085       .  S
C303        C304   1.411       .  A
C303        C310   1.445       .  S
C304       C1001   1.402       .  A
C305       C1000   1.401   1_455  A
C305        C306   1.401       .  A
C305        H308   1.085       .  S
C306        C997   1.410   1_455  A
C306        C309   1.442       .  S
C309        N311   1.157       .  T
C310        N312   1.157       .  T
C313       C1010   1.401   1_655  A
C313        C318   1.415       .  A
C314       C1009   1.403       .  A
C314        C315   1.402       .  A
C314        H319   1.085       .  S
C315        C316   1.415       .  A
C315        C322   1.445       .  S
C316       C1013   1.405       .  A
C317       C1012   1.408       .  A
C317        C318   1.411       .  A
C317        H320   1.084       .  S
C318        C321   1.443       .  S
C321        N323   1.157       .  T
C322        N324   1.157       .  T
C325       C1022   1.404       .  A
C325        C330   1.414       .  A
C326       C1021   1.405   1_455  A
C326        C327   1.401       .  A
C326        H331   1.085       .  S
C327       C1024   1.410   1_455  A
C327        C334   1.444       .  S
C328       C1023   1.410       .  A
C328        C329   1.408       .  A
C329        C330   1.410       .  A
C329        H332   1.085       .  S
C330        C333   1.442       .  S
C333        N335   1.157       .  T
C334        N336   1.157       .  T
C337       C1034   1.404       .  A
C337        C342   1.409       .  A
C338       C1033   1.403   1_455  A
C338        C339   1.403       .  A
C338        H343   1.085       .  S
C339       C1036   1.412   1_455  A
C339        C346   1.443       .  S
C340       C1035   1.409       .  A
C340        C341   1.404       .  A
C341        C342   1.399       .  A
C341        H344   1.085       .  S
C342        C345   1.445       .  S
C345        N347   1.157       .  T
C346        N348   1.157       .  T
O349       Zr361   2.442       .  S
O349       C1047   1.288       .  A
O350       C1047   1.282       .  A
C351       O1045   1.287       .  A
C351       O1046   1.283       .  A
C351        C511   1.467       .  S
O352        C354   1.290       .  A
O353       Zr388   2.417   1_545  S
O353        C354   1.284       .  A
C354        C454   1.476   1_545  S
O355       Zr364   2.438       .  S
O356      Zr1083   2.420       .  S
C357        C463   1.469       .  S
O358      Zr1231   2.451       .  S
O358        C360   1.290       .  A
O359       Zr388   2.444       .  S
O359        C360   1.289       .  A
C360        C502   1.486       .  S
Zr361      O1228   2.448   1_655  S
Zr361      O1063   2.372       .  S
Zr361      O1238   2.367       .  S
Zr361       O565   2.369   1_655  S
Zr361       O393   2.374   1_655  S
Zr361      O1058   2.436       .  S
Zr361       O537   2.437   1_655  S
O362      Zr1057   2.433       .  S
O362        H405   0.990       .  S
O363       Zr535   2.437       .  S
O363        H578   0.990       .  S
O363        H582   0.990   1_554  S
Zr364       O392   2.376       .  S
Zr364       O568   2.367       .  S
Zr364       O540   2.434       .  S
O365        H580   0.990       .  S
O365        H409   0.990       .  S
O366       Zr538   2.434       .  S
O366        H573   0.990       .  S
O367      Zr1057   2.377       .  S
O367       Zr735   2.385       .  S
O368      Zr1231   2.371       .  S
O368       Zr388   2.387       .  S
O368        H395   0.966       .  S
O369       Zr381   2.443       .  S
O370      Zr1084   2.406   1_465  S
O372      Zr1254   2.451       .  S
O372        C374   1.289       .  A
O373       Zr387   2.443       .  S
O373        C374   1.289       .  A
C374        C487   1.486       .  S
O375       Zr384   2.444       .  S
O375       C1073   1.288       .  A
O376       C1073   1.285       .  A
C377       O1071   1.287       .  A
C377       O1072   1.286       .  A
C377       C1171   1.468       .  S
O378        C380   1.289       .  A
O379       Zr387   2.419   1_455  S
O379        C380   1.284       .  A
C380        C442   1.475       .  S
Zr381       O567   2.374   1_554  S
Zr381       O391   2.377       .  S
Zr381       O383   2.435   1_554  S
O382        H576   0.989       .  S
O382        H581   0.990       .  S
O383        H403   0.990   1_556  S
Zr384      O1242   2.452   1_554  S
Zr384      O1260   2.369   1_554  S
Zr384      O1085   2.375       .  S
Zr384       O394   2.380       .  S
Zr384       O566   2.374   1_554  S
Zr384      O1081   2.435       .  S
Zr384       O560   2.435       .  S
O385      Zr1080   2.435   1_455  S
O385        H575   0.990       .  S
O386       Zr558   2.436       .  S
O386        H574   0.990       .  S
O386        H584   0.990       .  S
Zr387      O1052   2.411       .  S
Zr387       O715   2.381       .  S
Zr387       O390   2.378   1_655  S
Zr387      O1088   2.386       .  S
Zr388      O1066   2.412       .  S
Zr388       O737   2.389   1_565  S
Zr388      O1087   2.383       .  S
O389      Zr1080   2.378   1_455  S
O389       Zr736   2.393   1_455  S
O389        H397   0.968       .  S
O390      Zr1254   2.368   1_455  S
O391       Zr535   2.367       .  S
O391      Zr1084   2.389   1_465  S
O392       Zr558   2.369       .  S
O392      Zr1083   2.387       .  S
O392        H396   0.963       .  S
O393       Zr555   2.368       .  S
O393        H398   0.965       .  S
O394       Zr538   2.372       .  S
H399        O540   0.989       .  S
H400        O560   0.990   1_556  S
H401        O559   0.990       .  S
H402        O556   0.990   1_556  S
H404        O537   0.990       .  S
H406        O539   0.990       .  S
H407        O556   0.990       .  S
H408        O537   0.990       .  S
H410        O560   0.990   1_556  S
C411        C514   1.480       .  S
C411        C412   1.416       .  A
C411        C416   1.408       .  A
C412        C499   1.496       .  S
C412        C413   1.402       .  A
C413        C414   1.403       .  A
C413        H418   1.085       .  S
C414        C478   1.473       .  S
C414        C415   1.411       .  A
C415        C490   1.495       .  S
C415        C416   1.404       .  A
C416        H417   1.085       .  S
C419        C451   1.491       .  S
C419        C420   1.412       .  A
C419        C424   1.401       .  A
C420        C466   1.479       .  S
C420        C421   1.403       .  A
C421        C422   1.404       .  A
C421        H426   1.085       .  S
C422        C439   1.495       .  S
C422        C423   1.416       .  A
C423        C427   1.480       .  S
C423        C424   1.405       .  A
C424        H425   1.085       .  S
C427        C428   1.405       .  A
C428        C429   1.394       .  A
C428        H433   1.085       .  S
C429        C430   1.407       .  A
C429        C436   1.444       .  S
C431        C432   1.401       .  A
C431        H434   1.083       .  S
C432        C435   1.443       .  S
C435        N437   1.157       .  T
C436        N438   1.157       .  T
C439        C444   1.416       .  A
C440        C441   1.396       .  A
C440        H445   1.085       .  S
C441        C442   1.409       .  A
C441        C448   1.444       .  S
C443        C444   1.408       .  A
C443        H446   1.085       .  S
C444        C447   1.443       .  S
C447        N449   1.157       .  T
C448        N450   1.157       .  T
C451        C456   1.414       .  A
C452        C453   1.406       .  A
C452        H457   1.084       .  S
C453        C460   1.440       .  S
C454        C455   1.400       .  A
C455        C456   1.395       .  A
C455        H458   1.085       .  S
C456        C459   1.445       .  S
C459        N461   1.157       .  T
C460        N462   1.156       .  T
C463        C464   1.403   1_545  A
C464        C465   1.401       .  A
C464        H469   1.085       .  S
C465        C466   1.410       .  A
C465        C472   1.442       .  S
C467        C468   1.393       .  A
C467        H470   1.085       .  S
C468        C471   1.444       .  S
C471        N473   1.157       .  T
C472        N474   1.157       .  T
C475       C1073   1.468       .  S
C475        C476   1.399       .  A
C475       C1176   1.410       .  A
C476        C477   1.397       .  A
C476        H481   1.084       .  S
C477        C478   1.409       .  A
C477        C484   1.444       .  S
C478       C1175   1.403       .  A
C479       C1174   1.402   1_455  A
C479        C480   1.401       .  A
C479        H482   1.085       .  S
C480       C1171   1.409   1_455  A
C480        C483   1.443       .  S
C483        N485   1.157       .  T
C484        N486   1.157       .  T
C487       C1184   1.403   1_655  A
C487        C492   1.413       .  A
C488       C1183   1.402       .  A
C488        C489   1.401       .  A
C488        H493   1.085       .  S
C489        C490   1.413       .  A
C489        C496   1.443       .  S
C490       C1187   1.406       .  A
C491       C1186   1.405       .  A
C491        C492   1.407       .  A
C491        H494   1.084       .  S
C492        C495   1.442       .  S
C495        N497   1.157       .  T
C496        N498   1.157       .  T
C499       C1196   1.405       .  A
C499        C504   1.413       .  A
C500       C1195   1.403   1_455  A
C500        C501   1.397       .  A
C500        H505   1.085       .  S
C501       C1198   1.409   1_455  A
C501        C508   1.443       .  S
C502       C1197   1.410       .  A
C502        C503   1.407       .  A
C503        C504   1.410       .  A
C503        H506   1.085       .  S
C504        C507   1.442       .  S
C507        N509   1.157       .  T
C508        N510   1.157       .  T
C511       C1208   1.401       .  A
C511        C516   1.408       .  A
C512       C1207   1.402   1_455  A
C512        C513   1.400       .  A
C512        H517   1.085       .  S
C513       C1210   1.411   1_455  A
C513        C520   1.443       .  S
C514       C1209   1.411       .  A
C514        C515   1.405       .  A
C515        C516   1.398       .  A
C515        H518   1.085       .  S
C516        C519   1.445       .  S
C519        N521   1.157       .  T
C520        N522   1.157       .  T
O523       Zr535   2.445   1_656  S
O523       C1221   1.288       .  A
O524       C1221   1.284       .  A
C525       O1219   1.289       .  A
C525       O1220   1.282       .  A
C525        C685   1.468       .  S
O526        C528   1.291       .  A
O527       Zr562   2.418       .  S
O527        C528   1.284   1_545  A
C528        C628   1.478       .  S
O529       Zr538   2.447   1_556  S
O530      Zr1257   2.416       .  S
C531        C637   1.472       .  S
O532      Zr1057   2.451       .  S
O532        C534   1.289       .  A
O533       Zr562   2.436   1_565  S
O533        C534   1.288       .  A
C534        C676   1.483       .  S
Zr535      O1054   2.445       .  S
Zr535      O1237   2.374   1_454  S
Zr535      O1064   2.372   1_455  S
Zr535       O567   2.370   1_554  S
Zr535      O1232   2.435   1_455  S
O536      Zr1231   2.435       .  S
O536        H579   0.990       .  S
Zr538       O566   2.376   1_554  S
O539        H583   0.990       .  S
O541      Zr1231   2.373   1_556  S
O541       Zr909   2.382       .  S
O542      Zr1057   2.369       .  S
O542       Zr562   2.383   1_565  S
O542        H569   0.966       .  S
O543       Zr555   2.441       .  S
O544      Zr1258   2.418   1_465  S
O546      Zr1080   2.459   1_556  S
O546        C548   1.292       .  A
O547       Zr561   2.433       .  S
O547        C548   1.287       .  A
C548        C661   1.486       .  S
O549       Zr558   2.444       .  S
O549       C1247   1.288       .  A
O550       C1247   1.286       .  A
C551       O1245   1.287       .  A
C551       O1246   1.284       .  A
C551       C1345   1.462       .  S
O552        C554   1.288       .  A
O553       Zr561   2.424   1_455  S
O553        C554   1.285       .  A
C554        C616   1.475       .  S
Zr555       O565   2.374       .  S
Zr555       O557   2.434       .  S
O557        H577   0.990       .  S
Zr558      O1068   2.455       .  S
Zr558      O1086   2.370       .  S
Zr558      O1259   2.379       .  S
Zr558       O568   2.380       .  S
Zr558      O1255   2.435       .  S
O559      Zr1254   2.436   1_455  S
Zr561      O1226   2.409       .  S
Zr561       O889   2.384       .  S
Zr561       O564   2.380   1_655  S
Zr561      O1262   2.385       .  S
Zr562      O1240   2.411   1_545  S
Zr562       O911   2.390       .  S
Zr562      O1261   2.380   1_545  S
O563      Zr1254   2.374   1_455  S
O563       Zr910   2.390   1_455  S
O563        H571   0.969       .  S
O564      Zr1080   2.372   1_456  S
O565      Zr1258   2.383   1_465  S
O566      Zr1257   2.389       .  S
O566        H570   0.964       .  S
O567        H572   0.966       .  S
C585        C688   1.480       .  S
C585        C586   1.414       .  A
C585        C590   1.407       .  A
C586        C673   1.493       .  S
C586        C587   1.402       .  A
C587        C588   1.406       .  A
C587        H592   1.085       .  S
C588        C652   1.473       .  S
C588        C589   1.412       .  A
C589        C664   1.500       .  S
C589        C590   1.404       .  A
C590        H591   1.085       .  S
C593        C625   1.492       .  S
C593        C594   1.413       .  A
C593        C598   1.404       .  A
C594        C640   1.480       .  S
C594        C595   1.402       .  A
C595        C596   1.403       .  A
C595        H600   1.085       .  S
C596        C613   1.489       .  S
C596        C597   1.415       .  A
C597        C601   1.485       .  S
C597        C598   1.405       .  A
C598        H599   1.085       .  S
C601        C602   1.406       .  A
C602        C603   1.396       .  A
C602        H607   1.085       .  S
C603        C604   1.408       .  A
C603        C610   1.444       .  S
C605        C606   1.399       .  A
C605        H608   1.084       .  S
C606        C609   1.443       .  S
C609        N611   1.157       .  T
C610        N612   1.157       .  T
C613        C618   1.413       .  A
C614        C615   1.394       .  A
C614        H619   1.085       .  S
C615        C616   1.408       .  A
C615        C622   1.444       .  S
C617        C618   1.407       .  A
C617        H620   1.085       .  S
C618        C621   1.443       .  S
C621        N623   1.157       .  T
C622        N624   1.157       .  T
C625        C630   1.415       .  A
C626        C627   1.407       .  A
C626        H631   1.084       .  S
C627        C634   1.442       .  S
C628        C629   1.400       .  A
C629        C630   1.397       .  A
C629        H632   1.085       .  S
C630        C633   1.445       .  S
C633        N635   1.157       .  T
C634        N636   1.157       .  T
C637        C638   1.406       .  A
C638        C639   1.405       .  A
C638        H643   1.085       .  S
C639        C640   1.410       .  A
C639        C646   1.443       .  S
C641        C642   1.394       .  A
C641        H644   1.085       .  S
C642        C645   1.444       .  S
C645        N647   1.157       .  T
C646        N648   1.157       .  T
C649       C1247   1.469       .  S
C649        C650   1.401       .  A
C649       C1350   1.410       .  A
C650        C651   1.399       .  A
C650        H655   1.085       .  S
C651        C652   1.410       .  A
C651        C658   1.444       .  S
C652       C1349   1.400       .  A
C653       C1348   1.402   1_455  A
C653        C654   1.400       .  A
C653        H656   1.085       .  S
C654       C1345   1.409   1_455  A
C654        C657   1.444       .  S
C657        N659   1.157       .  T
C658        N660   1.157       .  T
C661       C1358   1.402   1_655  A
C661        C666   1.415       .  A
C662       C1357   1.402       .  A
C662        C663   1.400       .  A
C662        H667   1.085       .  S
C663        C664   1.415       .  A
C663        C670   1.444       .  S
C664       C1361   1.408       .  A
C665       C1360   1.405       .  A
C665        C666   1.407       .  A
C665        H668   1.084       .  S
C666        C669   1.442       .  S
C669        N671   1.157       .  T
C670        N672   1.157       .  T
C673       C1370   1.405       .  A
C673        C678   1.411       .  A
C674       C1369   1.404   1_455  A
C674        C675   1.398       .  A
C674        H679   1.085       .  S
C675       C1372   1.410   1_455  A
C675        C682   1.443       .  S
C676       C1371   1.411       .  A
C676        C677   1.406       .  A
C677        C678   1.407       .  A
C677        H680   1.085       .  S
C678        C681   1.441       .  S
C681        N683   1.157       .  T
C682        N684   1.157       .  T
C685       C1382   1.403       .  A
C685        C690   1.407       .  A
C686       C1381   1.403   1_455  A
C686        C687   1.401       .  A
C686        H691   1.085       .  S
C687       C1384   1.411   1_455  A
C687        C694   1.443       .  S
C688       C1383   1.412       .  A
C688        C689   1.404       .  A
C689        C690   1.396       .  A
C689        H692   1.085       .  S
C690        C693   1.444       .  S
C693        N695   1.157       .  T
C694        N696   1.157       .  T
O697       Zr709   2.447       .  S
O698      Zr1083   2.416       .  S
C699        C859   1.468       .  S
O700      Zr1234   2.445       .  S
O700        C702   1.289       .  A
O701       Zr736   2.426       .  S
O701        C702   1.286       .  A
C702        C802   1.477       .  S
O703       Zr712   2.439       .  S
O703       C1053   1.287   1_545  A
O704       C1053   1.283       .  A
C705       O1051   1.288       .  A
C705       O1052   1.283       .  A
C705        C811   1.469       .  S
O706        C708   1.291       .  A
O707       Zr736   2.442       .  S
O707        C708   1.289       .  A
C708        C850   1.487       .  S
Zr709       O913   2.371       .  S
Zr709       O741   2.375       .  S
Zr709       O885   2.434       .  S
O710        H753   0.990       .  S
O711       Zr883   2.434       .  S
O711        H926   0.990   1_554  S
O711        H930   0.989       .  S
Zr712      O1222   2.454       .  S
Zr712      O1238   2.367   1_545  S
Zr712      O1063   2.372   1_545  S
Zr712       O740   2.375       .  S
Zr712       O916   2.370       .  S
Zr712      O1061   2.436   1_545  S
Zr712       O888   2.434       .  S
O713      Zr1060   2.437       .  S
O713        H928   0.990       .  S
O713        H757   0.990       .  S
O714       Zr886   2.432       .  S
O714        H921   0.990   1_554  S
O715      Zr1060   2.366       .  S
O716      Zr1234   2.369       .  S
O716       Zr736   2.383       .  S
O716        H743   0.966       .  S
O717       Zr729   2.443       .  S
O717       C1067   1.289       .  A
O718       C1067   1.283       .  A
C719       O1065   1.289       .  A
C719       O1066   1.284       .  A
C719       C1126   1.473       .  S
O720        C722   1.291       .  A
O721       Zr735   2.431   1_545  S
O721        C722   1.287       .  A
C722        C835   1.487       .  S
O723       Zr732   2.448       .  S
O724      Zr1084   2.424       .  S
O726      Zr1251   2.443       .  S
O726        C728   1.289       .  A
O727       Zr735   2.425       .  S
O727        C728   1.285       .  A
C728        C790   1.475       .  S
Zr729      O1248   2.446   1_554  S
Zr729      O1085   2.374       .  S
Zr729      O1260   2.372   1_554  S
Zr729       O915   2.368   1_554  S
Zr729       O739   2.374       .  S
Zr729      O1252   2.437       .  S
Zr729       O731   2.434   1_554  S
O730      Zr1251   2.436   1_545  S
O730        H924   0.989       .  S
O730        H929   0.990       .  S
O731        H751   0.990       .  S
Zr732       O742   2.380       .  S
Zr732       O914   2.368   1_554  S
Zr732       O908   2.434   1_554  S
O733        H923   0.990       .  S
O734       Zr906   2.437       .  S
O734        H922   0.990       .  S
O734        H932   0.990       .  S
Zr735      O1046   2.413       .  S
Zr735       O738   2.381   1_565  S
Zr735      O1089   2.382       .  S
Zr736      O1072   2.424       .  S
Zr736      O1090   2.383       .  S
O737      Zr1077   2.370   1_545  S
O737        H745   0.967       .  S
O738      Zr1251   2.372   1_545  S
O739       Zr883   2.367       .  S
O740       Zr906   2.369       .  S
O740        H744   0.962       .  S
O741       Zr903   2.371       .  S
O741      Zr1083   2.387       .  S
O741        H746   0.964       .  S
O742       Zr886   2.369       .  S
O742      Zr1084   2.380       .  S
H747        O888   0.990       .  S
H748        O908   0.990   1_554  S
H749        O907   0.990       .  S
H750        O904   0.989   1_556  S
H752        O885   0.990       .  S
H754        O887   0.990   1_556  S
H755        O904   0.990       .  S
H756        O885   0.990       .  S
H758        O908   0.990   1_554  S
C759        C862   1.482       .  S
C759        C760   1.418       .  A
C759        C764   1.407       .  A
C760        C847   1.500       .  S
C760        C761   1.405       .  A
C761        C762   1.404       .  A
C761        H766   1.085       .  S
C762        C826   1.477       .  S
C762        C763   1.410       .  A
C763        C838   1.493       .  S
C763        C764   1.403       .  A
C764        H765   1.085       .  S
C767        C799   1.491       .  S
C767        C768   1.413       .  A
C767        C772   1.402       .  A
C768        C814   1.479       .  S
C768        C769   1.403       .  A
C769        C770   1.400       .  A
C769        H774   1.085       .  S
C770        C787   1.488       .  S
C770        C771   1.413       .  A
C771        C775   1.481       .  S
C771        C772   1.404       .  A
C772        H773   1.085       .  S
C775        C776   1.406       .  A
C775       C1128   1.412       .  A
C776        C777   1.395       .  A
C776        H781   1.085       .  S
C777        C778   1.408       .  A
C777        C784   1.444       .  S
C778       C1067   1.468       .  S
C778       C1127   1.402       .  A
C779       C1126   1.403   1_545  A
C779        C780   1.400       .  A
C779        H782   1.082       .  S
C780       C1123   1.410   1_545  A
C780        C783   1.444       .  S
C783        N785   1.157       .  T
C784        N786   1.157       .  T
C787       C1136   1.405       .  A
C787        C792   1.412       .  A
C788       C1135   1.403   1_545  A
C788        C789   1.393       .  A
C788        H793   1.085       .  S
C789        C790   1.408   1_545  A
C789        C796   1.443       .  S
C790       C1139   1.406       .  A
C791       C1138   1.405       .  A
C791        C792   1.405       .  A
C791        H794   1.085       .  S
C792        C795   1.443       .  S
C795        N797   1.157       .  T
C796        N798   1.157       .  T
C799       C1148   1.406       .  A
C799        C804   1.415       .  A
C800       C1147   1.406   1_545  A
C800        C801   1.407       .  A
C800        H805   1.084       .  S
C801       C1150   1.413   1_545  A
C801        C808   1.442       .  S
C802       C1149   1.411       .  A
C802        C803   1.401       .  A
C803        C804   1.397       .  A
C803        H806   1.085       .  S
C804        C807   1.445       .  S
C807        N809   1.157       .  T
C808        N810   1.157       .  T
C811        C812   1.405       .  A
C811       C1164   1.407       .  A
C812        C813   1.403       .  A
C812        H817   1.085       .  S
C813        C814   1.411       .  A
C813        C820   1.443       .  S
C814       C1163   1.402       .  A
C815       C1162   1.403   1_545  A
C815        C816   1.394       .  A
C815        H818   1.085       .  S
C816       C1159   1.408   1_545  A
C816        C819   1.445       .  S
C819        N821   1.157       .  T
C820        N822   1.157       .  T
C823        C824   1.401       .  A
C824        C825   1.400       .  A
C824        H829   1.085       .  S
C825        C826   1.410       .  A
C825        C832   1.444       .  S
C827        C828   1.402       .  A
C827        H830   1.085       .  S
C828        C831   1.442       .  S
C831        N833   1.157       .  T
C832        N834   1.157       .  T
C835        C840   1.414       .  A
C836        C837   1.402       .  A
C836        H841   1.085       .  S
C837        C838   1.413   1_455  A
C837        C844   1.444       .  S
C839        C840   1.408       .  A
C839        H842   1.084       .  S
C840        C843   1.443       .  S
C843        N845   1.157       .  T
C844        N846   1.157       .  T
C847        C852   1.415       .  A
C848        C849   1.399       .  A
C848        H853   1.085       .  S
C849        C856   1.443       .  S
C850        C851   1.407       .  A
C851        C852   1.411       .  A
C851        H854   1.085       .  S
C852        C855   1.442       .  S
C855        N857   1.157       .  T
C856        N858   1.157       .  T
C859        C864   1.409       .  A
C860        C861   1.403       .  A
C860        H865   1.085       .  S
C861        C868   1.443       .  S
C862        C863   1.406       .  A
C863        C864   1.398       .  A
C863        H866   1.085       .  S
C864        C867   1.445       .  S
C867        N869   1.158       .  T
C868        N870   1.157       .  T
O871       Zr883   2.442   1_556  S
O872      Zr1257   2.422       .  S
C873       C1033   1.473       .  S
O874      Zr1060   2.456       .  S
O874        C876   1.291       .  A
O875       Zr910   2.426       .  S
O875        C876   1.285       .  A
C876        C976   1.481       .  S
O877       Zr886   2.435   1_556  S
O877       C1227   1.287   1_545  A
O878       C1227   1.285       .  A
C879       O1225   1.288       .  A
C879       O1226   1.283       .  A
C879        C985   1.465       .  S
O880        C882   1.290       .  A
O881       Zr910   2.438       .  S
O881        C882   1.288       .  A
C882       C1024   1.487       .  S
Zr883       O915   2.371   1_554  S
O884        H927   0.990       .  S
Zr886      O1048   2.451   1_545  S
Zr886      O1064   2.361   1_545  S
Zr886      O1237   2.373   1_544  S
Zr886       O914   2.375   1_554  S
Zr886      O1235   2.437   1_545  S
O887      Zr1234   2.437       .  S
O887        H931   0.990       .  S
O889      Zr1234   2.374   1_556  S
O890      Zr1060   2.367       .  S
O890       Zr910   2.379       .  S
O890        H917   0.965       .  S
O891       Zr903   2.438       .  S
O891       C1241   1.288       .  A
O892       C1241   1.284       .  A
C893       O1239   1.288       .  A
C893       O1240   1.284       .  A
C893       C1300   1.473       .  S
O894        C896   1.291       .  A
O895       Zr909   2.435   1_545  S
O895        C896   1.287       .  A
C896       C1009   1.488       .  S
O897       Zr906   2.445       .  S
O898      Zr1258   2.425       .  S
O900      Zr1077   2.442   1_556  S
O900        C902   1.288       .  A
O901       Zr909   2.416       .  S
O901        C902   1.284       .  A
C902        C964   1.470       .  S
Zr903      O1074   2.449       .  S
Zr903      O1259   2.370       .  S
Zr903      O1086   2.369       .  S
Zr903       O913   2.375       .  S
Zr903      O1078   2.436       .  S
Zr903       O905   2.433       .  S
O904      Zr1077   2.435   1_545  S
O905        H925   0.990       .  S
Zr906       O916   2.381       .  S
Zr909      O1220   2.406       .  S
Zr909       O912   2.377   1_565  S
Zr909      O1263   2.389       .  S
Zr910      O1246   2.417       .  S
Zr910      O1264   2.385       .  S
O911      Zr1251   2.375   1_545  S
O911        H919   0.966       .  S
O912      Zr1077   2.372   1_546  S
O914        H918   0.966       .  S
O915      Zr1257   2.385       .  S
O915        H920   0.965       .  S
O916      Zr1258   2.386       .  S
C933       C1036   1.485       .  S
C933        C934   1.417       .  A
C933        C938   1.409       .  A
C934       C1021   1.497       .  S
C934        C935   1.405       .  A
C935        C936   1.406       .  A
C935        H940   1.085       .  S
C936       C1000   1.478       .  S
C936        C937   1.412       .  A
C937       C1012   1.499       .  S
C937        C938   1.405       .  A
C938        H939   1.085       .  S
C941        C973   1.495       .  S
C941        C942   1.413       .  A
C941        C946   1.403       .  A
C942        C988   1.476       .  S
C942        C943   1.402       .  A
C943        C944   1.399       .  A
C943        H948   1.085       .  S
C944        C961   1.491       .  S
C944        C945   1.416       .  A
C945        C949   1.484       .  S
C945        C946   1.407       .  A
C946        H947   1.085       .  S
C949        C950   1.406       .  A
C949       C1302   1.412       .  A
C950        C951   1.396       .  A
C950        H955   1.085       .  S
C951        C952   1.409       .  A
C951        C958   1.444       .  S
C952       C1241   1.472       .  S
C952       C1301   1.401       .  A
C953       C1300   1.401   1_545  A
C953        C954   1.398       .  A
C953        H956   1.082       .  S
C954       C1297   1.413   1_545  A
C954        C957   1.442       .  S
C957        N959   1.157       .  T
C958        N960   1.157       .  T
C961       C1310   1.406       .  A
C961        C966   1.412       .  A
C962       C1309   1.405   1_545  A
C962        C963   1.393       .  A
C962        H967   1.085       .  S
C963        C964   1.407   1_545  A
C963        C970   1.445       .  S
C964       C1313   1.404       .  A
C965       C1312   1.405       .  A
C965        C966   1.406       .  A
C965        H968   1.085       .  S
C966        C969   1.443       .  S
C969        N971   1.157       .  T
C970        N972   1.157       .  T
C973       C1322   1.406       .  A
C973        C978   1.414       .  A
C974       C1321   1.405   1_545  A
C974        C975   1.405       .  A
C974        H979   1.084       .  S
C975       C1324   1.412   1_545  A
C975        C982   1.441       .  S
C976       C1323   1.413       .  A
C976        C977   1.401       .  A
C977        C978   1.398       .  A
C977        H980   1.085       .  S
C978        C981   1.444       .  S
C981        N983   1.157       .  T
C982        N984   1.157       .  T
C985        C986   1.403       .  A
C985       C1338   1.408       .  A
C986        C987   1.400       .  A
C986        H991   1.085       .  S
C987        C988   1.409       .  A
C987        C994   1.442       .  S
C988       C1337   1.403       .  A
C989       C1336   1.407   1_545  A
C989        C990   1.397       .  A
C989        H992   1.085       .  S
C990       C1333   1.410       .  A
C990        C993   1.445       .  S
C993        N995   1.157       .  T
C994        N996   1.157       .  T
C997        C998   1.401       .  A
C998        C999   1.400       .  A
C998       H1003   1.085       .  S
C999       C1000   1.411       .  A
C999       C1006   1.444       .  S
C1001      C1002   1.402       .  A
C1001      H1004   1.085       .  S
C1002      C1005   1.443       .  S
C1005      N1007   1.157       .  T
C1006      N1008   1.157       .  T
C1009      C1014   1.415       .  A
C1010      C1011   1.400       .  A
C1010      H1015   1.085       .  S
C1011      C1012   1.414   1_455  A
C1011      C1018   1.443       .  S
C1013      C1014   1.407       .  A
C1013      H1016   1.084       .  S
C1014      C1017   1.442       .  S
C1017      N1019   1.157       .  T
C1018      N1020   1.157       .  T
C1021      C1026   1.414       .  A
C1022      C1023   1.399       .  A
C1022      H1027   1.085       .  S
C1023      C1030   1.443       .  S
C1024      C1025   1.407       .  A
C1025      C1026   1.411       .  A
C1025      H1028   1.085       .  S
C1026      C1029   1.442       .  S
C1029      N1031   1.157       .  T
C1030      N1032   1.157       .  T
C1033      C1038   1.408       .  A
C1034      C1035   1.401       .  A
C1034      H1039   1.085       .  S
C1035      C1042   1.443       .  S
C1036      C1037   1.406       .  A
C1037      C1038   1.398       .  A
C1037      H1040   1.085       .  S
C1038      C1041   1.444       .  S
C1041      N1043   1.157       .  T
C1042      N1044   1.157       .  T
O1045     Zr1057   2.438       .  S
C1047      C1207   1.465       .  S
O1048      C1050   1.290   1_565  A
O1049     Zr1084   2.424       .  S
O1049      C1050   1.285       .  A
C1050      C1150   1.481   1_545  S
O1051     Zr1060   2.442       .  S
C1053      C1159   1.466       .  S
O1054      C1056   1.289   1_455  A
O1055     Zr1084   2.434   1_565  S
O1055      C1056   1.287       .  A
C1056      C1198   1.480       .  S
Zr1057     O1261   2.364       .  S
Zr1057     O1089   2.367       .  S
Zr1057     O1233   2.437       .  S
O1058      H1101   0.990       .  S
O1059     Zr1231   2.434       .  S
O1059      H1274   0.990       .  S
O1059      H1278   0.990       .  S
Zr1060     O1088   2.378       .  S
Zr1060     O1264   2.372       .  S
Zr1060     O1236   2.435       .  S
O1061      H1276   0.990       .  S
O1061      H1105   0.990       .  S
O1062     Zr1234   2.435       .  S
O1062      H1269   0.990       .  S
O1064     Zr1084   2.381   1_565  S
O1064      H1091   0.965       .  S
O1065     Zr1077   2.447       .  S
O1068      C1070   1.291       .  A
O1069     Zr1083   2.435       .  S
O1069      C1070   1.287       .  A
C1070      C1183   1.485       .  S
O1071     Zr1080   2.442       .  S
O1074      C1076   1.289       .  A
O1075     Zr1083   2.427       .  S
O1075      C1076   1.286       .  A
C1076      C1138   1.478       .  S
Zr1077     O1263   2.371   1_554  S
Zr1077     O1087   2.373       .  S
Zr1077     O1079   2.434       .  S
O1078      H1272   0.990       .  S
O1078      H1277   0.989       .  S
O1079      H1099   0.990   1_554  S
Zr1080     O1090   2.378       .  S
Zr1080     O1262   2.366   1_554  S
Zr1080     O1256   2.436       .  S
O1081      H1271   0.990   1_554  S
O1082     Zr1254   2.435       .  S
O1082      H1270   0.990       .  S
O1082      H1280   0.990       .  S
Zr1083     O1086   2.380       .  S
O1085      H1093   0.969       .  S
O1087     Zr1231   2.369       .  S
O1088     Zr1254   2.373       .  S
O1088      H1092   0.964       .  S
O1089     Zr1251   2.368       .  S
O1089      H1094   0.965       .  S
O1090     Zr1234   2.371       .  S
H1095      O1236   0.990       .  S
H1096      O1256   0.990       .  S
H1097      O1255   0.990       .  S
H1098      O1252   0.990       .  S
H1100      O1233   0.990       .  S
H1102      O1235   0.990   1_556  S
H1103      O1252   0.990       .  S
H1104      O1233   0.990       .  S
H1106      O1256   0.990   1_556  S
C1107      C1210   1.478       .  S
C1107      C1108   1.412       .  A
C1107      C1112   1.405       .  A
C1108      C1195   1.489       .  S
C1108      C1109   1.402       .  A
C1109      C1110   1.404       .  A
C1109      H1114   1.085       .  S
C1110      C1174   1.474       .  S
C1110      C1111   1.412       .  A
C1111      C1186   1.494       .  S
C1111      C1112   1.403       .  A
C1112      H1113   1.085       .  S
C1115      C1147   1.493       .  S
C1115      C1116   1.412       .  A
C1115      C1120   1.403       .  A
C1116      C1162   1.476       .  S
C1116      C1117   1.402       .  A
C1117      C1118   1.401       .  A
C1117      H1122   1.085       .  S
C1118      C1135   1.487       .  S
C1118      C1119   1.412       .  A
C1119      C1123   1.479       .  S
C1119      C1120   1.403       .  A
C1120      H1121   1.085       .  S
C1123      C1124   1.403       .  A
C1124      C1125   1.395       .  A
C1124      H1129   1.085       .  S
C1125      C1126   1.409       .  A
C1125      C1132   1.443       .  S
C1127      C1128   1.399       .  A
C1127      H1130   1.085       .  S
C1128      C1131   1.442       .  S
C1131      N1133   1.157       .  T
C1132      N1134   1.157       .  T
C1135      C1140   1.414       .  A
C1136      C1137   1.398       .  A
C1136      H1141   1.085       .  S
C1137      C1138   1.410       .  A
C1137      C1144   1.444       .  S
C1139      C1140   1.407       .  A
C1139      H1142   1.085       .  S
C1140      C1143   1.443       .  S
C1143      N1145   1.157       .  T
C1144      N1146   1.157       .  T
C1147      C1152   1.413       .  A
C1148      C1149   1.405       .  A
C1148      H1153   1.084       .  S
C1149      C1156   1.442       .  S
C1150      C1151   1.401       .  A
C1151      C1152   1.396       .  A
C1151      H1154   1.085       .  S
C1152      C1155   1.445       .  S
C1155      N1157   1.157       .  T
C1156      N1158   1.157       .  T
C1159      C1160   1.403       .  A
C1160      C1161   1.401       .  A
C1160      H1165   1.085       .  S
C1161      C1162   1.409       .  A
C1161      C1168   1.442       .  S
C1163      C1164   1.393       .  A
C1163      H1166   1.085       .  S
C1164      C1167   1.445       .  S
C1167      N1169   1.157       .  T
C1168      N1170   1.157       .  T
C1171      C1172   1.400       .  A
C1172      C1173   1.398       .  A
C1172      H1177   1.085       .  S
C1173      C1174   1.410       .  A
C1173      C1180   1.444       .  S
C1175      C1176   1.402       .  A
C1175      H1178   1.085       .  S
C1176      C1179   1.444       .  S
C1179      N1181   1.157       .  T
C1180      N1182   1.157       .  T
C1183      C1188   1.414       .  A
C1184      C1185   1.402       .  A
C1184      H1189   1.085       .  S
C1185      C1186   1.414   1_455  A
C1185      C1192   1.445       .  S
C1187      C1188   1.408       .  A
C1187      H1190   1.083       .  S
C1188      C1191   1.442       .  S
C1191      N1193   1.157       .  T
C1192      N1194   1.157       .  T
C1195      C1200   1.413       .  A
C1196      C1197   1.401       .  A
C1196      H1201   1.085       .  S
C1197      C1204   1.443       .  S
C1198      C1199   1.407       .  A
C1199      C1200   1.408       .  A
C1199      H1202   1.085       .  S
C1200      C1203   1.442       .  S
C1203      N1205   1.157       .  T
C1204      N1206   1.157       .  T
C1207      C1212   1.407       .  A
C1208      C1209   1.399       .  A
C1208      H1213   1.085       .  S
C1209      C1216   1.443       .  S
C1210      C1211   1.404       .  A
C1211      C1212   1.395       .  A
C1211      H1214   1.085       .  S
C1212      C1215   1.444       .  S
C1215      N1217   1.157       .  T
C1216      N1218   1.157       .  T
O1219     Zr1231   2.447   1_556  S
C1221      C1381   1.474       .  S
O1222      C1224   1.291       .  A
O1223     Zr1258   2.424       .  S
O1223      C1224   1.285       .  A
C1224      C1324   1.480   1_545  S
O1225     Zr1234   2.440   1_556  S
C1227      C1333   1.471   1_565  S
O1228      C1230   1.289   1_455  A
O1229     Zr1258   2.439   1_565  S
O1229      C1230   1.288       .  A
C1230      C1372   1.483       .  S
Zr1231     O1263   2.368   1_554  S
O1232      H1275   0.990       .  S
Zr1234     O1262   2.375   1_554  S
O1235      H1279   0.990       .  S
O1238     Zr1258   2.382   1_565  S
O1238      H1265   0.964       .  S
O1239     Zr1251   2.440       .  S
O1242      C1244   1.290       .  A
O1243     Zr1257   2.442       .  S
O1243      C1244   1.289       .  A
C1244      C1357   1.489       .  S
O1245     Zr1254   2.437       .  S
O1248      C1250   1.289       .  A
O1249     Zr1257   2.431       .  S
O1249      C1250   1.287       .  A
C1250      C1312   1.478       .  S
Zr1251     O1261   2.370       .  S
Zr1251     O1253   2.434       .  S
O1253      H1273   0.990       .  S
Zr1254     O1264   2.381       .  S
Zr1257     O1260   2.381       .  S
O1259      H1267   0.966       .  S
O1262      H1266   0.965       .  S
O1263      H1268   0.965       .  S
C1281      C1384   1.484       .  S
C1281      C1282   1.418       .  A
C1281      C1286   1.407       .  A
C1282      C1369   1.493       .  S
C1282      C1283   1.403       .  A
C1283      C1284   1.402       .  A
C1283      H1288   1.085       .  S
C1284      C1348   1.473       .  S
C1284      C1285   1.410       .  A
C1285      C1360   1.494       .  S
C1285      C1286   1.402       .  A
C1286      H1287   1.085       .  S
C1289      C1321   1.493       .  S
C1289      C1290   1.417       .  A
C1289      C1294   1.404       .  A
C1290      C1336   1.487       .  S
C1290      C1291   1.403       .  A
C1291      C1292   1.402       .  A
C1291      H1296   1.085       .  S
C1292      C1309   1.488       .  S
C1292      C1293   1.414       .  A
C1293      C1297   1.488       .  S
C1293      C1294   1.404       .  A
C1294      H1295   1.085       .  S
C1297      C1298   1.408       .  A
C1298      C1299   1.397       .  A
C1298      H1303   1.085       .  S
C1299      C1300   1.409       .  A
C1299      C1306   1.444       .  S
C1301      C1302   1.399       .  A
C1301      H1304   1.082       .  S
C1302      C1305   1.443       .  S
C1305      N1307   1.157       .  T
C1306      N1308   1.157       .  T
C1309      C1314   1.414       .  A
C1310      C1311   1.398       .  A
C1310      H1315   1.085       .  S
C1311      C1312   1.409       .  A
C1311      C1318   1.445       .  S
C1313      C1314   1.405       .  A
C1313      H1316   1.085       .  S
C1314      C1317   1.443       .  S
C1317      N1319   1.157       .  T
C1318      N1320   1.157       .  T
C1321      C1326   1.417       .  A
C1322      C1323   1.406       .  A
C1322      H1327   1.084       .  S
C1323      C1330   1.441       .  S
C1324      C1325   1.401       .  A
C1325      C1326   1.397       .  A
C1325      H1328   1.085       .  S
C1326      C1329   1.446       .  S
C1329      N1331   1.157       .  T
C1330      N1332   1.156       .  T
C1333      C1334   1.403   1_545  A
C1334      C1335   1.401       .  A
C1334      H1339   1.085       .  S
C1335      C1336   1.411       .  A
C1335      C1342   1.441       .  S
C1337      C1338   1.394       .  A
C1337      H1340   1.085       .  S
C1338      C1341   1.445       .  S
C1341      N1343   1.157       .  T
C1342      N1344   1.156       .  T
C1345      C1346   1.398       .  A
C1346      C1347   1.396       .  A
C1346      H1351   1.085       .  S
C1347      C1348   1.409       .  A
C1347      C1354   1.444       .  S
C1349      C1350   1.399       .  A
C1349      H1352   1.085       .  S
C1350      C1353   1.442       .  S
C1353      N1355   1.157       .  T
C1354      N1356   1.157       .  T
C1357      C1362   1.415       .  A
C1358      C1359   1.401       .  A
C1358      H1363   1.085       .  S
C1359      C1360   1.414   1_455  A
C1359      C1366   1.444       .  S
C1361      C1362   1.411       .  A
C1361      H1364   1.084       .  S
C1362      C1365   1.443       .  S
C1365      N1367   1.157       .  T
C1366      N1368   1.157       .  T
C1369      C1374   1.412       .  A
C1370      C1371   1.402       .  A
C1370      H1375   1.085       .  S
C1371      C1378   1.443       .  S
C1372      C1373   1.407       .  A
C1373      C1374   1.409       .  A
C1373      H1376   1.085       .  S
C1374      C1377   1.441       .  S
C1377      N1379   1.157       .  T
C1378      N1380   1.157       .  T
C1381      C1386   1.409       .  A
C1382      C1383   1.401       .  A
C1382      H1387   1.085       .  S
C1383      C1390   1.443       .  S
C1384      C1385   1.406       .  A
C1385      C1386   1.398       .  A
C1385      H1388   1.085       .  S
C1386      C1389   1.445       .  S
C1389      N1391   1.157       .  T
C1390      N1392   1.157       .  T
