geometry optimzed in LAMMPS
_audit_creation_date              2020-11-30 
_audit_creation_method            'lammps2cif' 
_symmetry_space_group_name_H-M    'P1' 
_symmetry_Int_Tables_number       1 
_symmetry_cell_setting            triclinic 
loop_ 
_symmetry_equiv_pos_as_xyz 
  x,y,z 
_cell_length_a                    39.51344125 
_cell_length_b                    39.5254347408003 
_cell_length_c                    30.7921792104145 
_cell_angle_alpha                 89.99969105638313 
_cell_angle_beta                  90.00141688631169 
_cell_angle_gamma                 120.00916018962018 
loop_ 
_atom_site_label 
_atom_site_type_symbol 
_atom_site_fract_x 
_atom_site_fract_y 
_atom_site_fract_z 
_atom_site_charge 
Zn1        Zn  0.25007037  0.16582873  0.93901079     1.49700
Zn2        Zn  0.25008175  0.08399738  0.93901509     1.49400
Zn3        Zn  0.16836191  0.08406325  0.93945153     1.49100
Zn4        Zn  0.22267040  0.11119723  0.85515721     1.49500
O5          O  0.22279231  0.11126896  0.91879665    -1.80400
O6          O  0.29906867  0.17761082  0.97328814    -0.71000
O7          O  0.21305141  0.03510694  0.97362194    -0.70800
O8          O  0.15667866  0.12127838  0.97390661    -0.70300
O9          O  0.29907253  0.12121989  0.97330285    -0.71000
O10         O  0.21304770  0.17770248  0.97362322    -0.70600
O11         O  0.15668249  0.03516732  0.97389504    -0.71200
O12         O  0.16932184  0.08451806  0.83075773    -0.70600
O13         O  0.26872374  0.06519179  0.88810262    -0.71300
O14         O  0.13072161  0.06524389  0.88879991    -0.70700
O15         O  0.24922079  0.08450461  0.83026949    -0.71200
O16         O  0.24921049  0.16443480  0.83026161    -0.71100
O17         O  0.26869673  0.20325686  0.88809024    -0.70900
C18         C  0.31503275  0.15739875  0.98316703     0.80900
C19         C  0.17690985  0.01919612  0.98368373     0.81400
C20         C  0.17690765  0.15747711  0.98369312     0.80300
C21         C  0.13571675  0.06772793  0.84787582     0.80700
C22         C  0.26609429  0.06769547  0.84719306     0.81900
C23         C  0.26607279  0.19811823  0.84718225     0.80900
Zn24       Zn  0.27706808  0.13839371  0.59337025     1.49700
Zn25       Zn  0.22310659  0.11143165  0.50645397     1.49400
Zn26       Zn  0.19636477  0.05778234  0.59370940     1.49100
Zn27       Zn  0.19636108  0.13831113  0.59372118     1.49500
O28         O  0.22322696  0.11148142  0.57074711    -1.80400
O29         O  0.31676834  0.15825250  0.54566328    -0.71000
O30         O  0.19374199  0.05288745  0.48500137    -0.70800
O31         O  0.23150726  0.04726383  0.63119060    -0.70300
O32         O  0.28162686  0.14069975  0.48465644    -0.71000
O33         O  0.28776575  0.10345793  0.63101209    -0.70600
O34         O  0.17631988  0.01793693  0.54614922    -0.71200
O35         O  0.15089298  0.10340362  0.63171430    -0.70600
O36         O  0.19374042  0.14061492  0.48501495    -0.71300
O37         O  0.15089120  0.04720478  0.63169864    -0.70700
O38         O  0.17630942  0.15812538  0.54616792    -0.71200
O39         O  0.23151172  0.18396199  0.63120897    -0.71100
O40         O  0.28776693  0.18401670  0.63102690    -0.70900
C41         C  0.31470971  0.15723590  0.50449040     0.80900
C42         C  0.17723202  0.01988229  0.50496455     0.81400
C43         C  0.26671057  0.06831683  0.64335562     0.80300
C44         C  0.13682438  0.06826858  0.64408032     0.80700
C45         C  0.17722672  0.15710465  0.50498168     0.81900
C46         C  0.26671455  0.19810530  0.64337391     0.80900
C47         C  0.00051866  0.00012028  0.78776379     0.49200
H48         H  0.00032015  0.00002197  0.82383744     0.00200
C49         C  0.00102977  0.00037225  0.70309270     0.49300
H50         H  0.00123176  0.33380472  0.66700407     0.00200
C51         C  0.31357338  0.02056803  0.76754966    -0.13500
C52         C  0.04142440  0.02057158  0.76795203    -0.13200
C53         C  0.31357107  0.29272676  0.76755202    -0.13600
C54         C  0.31380854  0.02075533  0.72312808    -0.13600
C55         C  0.04180561  0.02075948  0.72353277    -0.13200
C56         C  0.31380901  0.29277097  0.72313173    -0.13500
Zn57       Zn  0.16670404  0.24990037  0.43804114     1.49700
Zn58       Zn  0.08474890  0.16788008  0.43726758     1.49400
Zn59       Zn  0.08473916  0.24998199  0.43725803     1.48900
Zn60       Zn  0.11246969  0.22280874  0.35370576     1.49500
O61         O  0.11215247  0.22263607  0.41734473    -1.80400
O62         O  0.17866615  0.21221702  0.47176416    -0.71000
O63         O  0.03492996  0.15578800  0.47083900    -0.70800
O64         O  0.12232202  0.29978213  0.47099035    -0.70300
O65         O  0.12231972  0.15564323  0.47100699    -0.71000
O66         O  0.17866307  0.29953912  0.47175864    -0.70600
O67         O  0.03491861  0.21224625  0.47083059    -0.71200
O68         O  0.08605440  0.24951160  0.32861850    -0.70600
O69         O  0.06623500  0.13077906  0.38633670    -0.71300
O70         O  0.06622406  0.26858929  0.38633469    -0.70700
O71         O  0.08605060  0.16969363  0.32862200    -0.71200
O72         O  0.16580203  0.24948235  0.32950597    -0.71100
O73         O  0.20426096  0.26868699  0.38763161    -0.70900
C74         C  0.15856721  0.17581899  0.48075793     0.80900
C75         C  0.01872142  0.17591395  0.48017583     0.81400
C76         C  0.15856902  0.31584577  0.48074182     0.80300
C77         C  0.06904176  0.26619620  0.34547437     0.80700
C78         C  0.06904293  0.13599615  0.34547761     0.81900
C79         C  0.19934632  0.26624630  0.34673435     0.80900
Zn80       Zn  0.08447671  0.16799133  0.05086096     1.49700
Zn81       Zn  0.08446480  0.24961140  0.05084325     1.49400
Zn82       Zn  0.11136617  0.22227566  0.13506834     1.49100
Zn83       Zn  0.16629465  0.24970349  0.05147575     1.49500
O84         O  0.11167265  0.22240672  0.07143259    -1.80400
O85         O  0.03558755  0.15616517  0.01632902    -0.71000
O86         O  0.06557899  0.26830851  0.10146076    -0.70800
O87         O  0.08458729  0.16900485  0.15956313    -0.70300
O88         O  0.03558347  0.21253612  0.01630905    -0.71000
O89         O  0.06560523  0.13044663  0.10150477    -0.70600
O90         O  0.08458721  0.24877719  0.15953295    -0.71200
O91         O  0.20348068  0.26830244  0.10262749    -0.70600
O92         O  0.12171249  0.29855358  0.01658227    -0.71300
O93         O  0.16447307  0.24884083  0.16031186    -0.70700
O94         O  0.17820575  0.29873264  0.01707308    -0.71200
O95         O  0.17820972  0.21257896  0.01707766    -0.71100
O96         O  0.12171597  0.15627059  0.01660389    -0.70900
C97         C  0.01963697  0.17637348  0.00640368     0.80900
C98         C  0.06790195  0.26566704  0.14237919     0.81400
C99         C  0.06791557  0.13542470  0.14242072     0.80300
C100        C  0.19821442  0.26569316  0.14351664     0.80700
C101        C  0.15795255  0.31460334  0.00694590     0.81900
C102        C  0.15795483  0.17645367  0.00695863     0.80900
C103        C  0.00126041  0.00054220  0.28672396     0.49200
H104        H  0.00161707  0.00071749  0.32282563     0.00200
C105        C  0.00037242  0.00010795  0.20206091     0.49300
H106        H  0.00001622  0.99993430  0.16597790     0.00200
C107        C  0.02143569  0.31339179  0.26634575    -0.13500
C108        C  0.29362534  0.31339527  0.26707891    -0.13200
C109        C  0.02143485  0.04120347  0.26635485    -0.13600
C110        C  0.02095967  0.31316433  0.22193913    -0.13600
C111        C  0.29313225  0.31315335  0.22267022    -0.13200
C112        C  0.02096042  0.04096655  0.22195019    -0.13500
C113        C  0.03786255  0.07515419  0.19507082    -0.09500
C114        C  0.05137886  0.10237159  0.17053477    -0.11100
C115        C  0.25849929  0.29583997  0.19636559    -0.09500
C116        C  0.23113504  0.28215756  0.17195416    -0.11100
C117        C  0.05136593  0.28218902  0.17048779    -0.09500
C118        C  0.03785754  0.29588481  0.19504296    -0.11100
C119        C  0.25959716  0.29638287  0.29415572    -0.09500
C120        C  0.23243262  0.28279786  0.31873470    -0.11100
C121        C  0.05257430  0.10305309  0.31716821    -0.09500
C122        C  0.03882251  0.07568513  0.29281664    -0.11100
C123        C  0.03882837  0.29629668  0.29280513    -0.09500
C124        C  0.05257810  0.28267969  0.31716310    -0.11100
C125        C  0.28301477  0.05204824  0.67236591    -0.09500
C126        C  0.29670742  0.03817640  0.69654309    -0.11100
C127        C  0.10428851  0.05199669  0.67323025    -0.09500
C128        C  0.07660017  0.03815300  0.69728816    -0.11100
C129        C  0.28302260  0.23067741  0.67238319    -0.09500
C130        C  0.29671376  0.25824602  0.69655307    -0.11100
C131        C  0.29627622  0.03765267  0.79426514    -0.09500
C132        C  0.28259211  0.05120912  0.81884590    -0.11100
C133        C  0.10267225  0.05120373  0.81969436    -0.09500
C134        C  0.07554474  0.03763608  0.79499971    -0.11100
C135        C  0.29626362  0.25834550  0.79426458    -0.09500
C136        C  0.28256940  0.23109981  0.81883583    -0.11100
Zn137      Zn  0.25007023  0.49916197  0.93901079     1.49700
Zn138      Zn  0.25008169  0.41733067  0.93901506     1.49400
Zn139      Zn  0.16836181  0.41739645  0.93945154     1.49100
Zn140      Zn  0.22267037  0.44453060  0.85515719     1.49500
O141        O  0.22279222  0.44460221  0.91879663    -1.80400
O142        O  0.29906858  0.51094421  0.97328811    -0.71000
O143        O  0.21305145  0.36844021  0.97362189    -0.70800
O144        O  0.15667850  0.45461149  0.97390667    -0.70300
O145        O  0.29907240  0.45455324  0.97330281    -0.71000
O146        O  0.21304747  0.51103554  0.97362320    -0.70600
O147        O  0.15668250  0.36850061  0.97389505    -0.71200
O148        O  0.16932179  0.41785150  0.83075778    -0.70600
O149        O  0.26872381  0.39852517  0.88810260    -0.71300
O150        O  0.13072162  0.39857719  0.88879985    -0.70700
O151        O  0.24922074  0.41783797  0.83026947    -0.71200
O152        O  0.24921063  0.49776819  0.83026161    -0.71100
O153        O  0.26869663  0.53659012  0.88809026    -0.70900
C154        C  0.31503263  0.49073201  0.98316706     0.80900
C155        C  0.17690996  0.35252939  0.98368363     0.81400
C156        C  0.17690762  0.49081036  0.98369315     0.80300
C157        C  0.13571670  0.40106134  0.84787578     0.80700
C158        C  0.26609428  0.40102885  0.84719304     0.81900
C159        C  0.26607280  0.53145159  0.84718226     0.80900
Zn160      Zn  0.27706814  0.47172706  0.59337024     1.49700
Zn161      Zn  0.22310660  0.44476506  0.50645400     1.49400
Zn162      Zn  0.19636477  0.39111562  0.59370941     1.49100
Zn163      Zn  0.19636115  0.47164451  0.59372115     1.49500
O164        O  0.22322699  0.44481478  0.57074714    -1.80400
O165        O  0.31676846  0.49158579  0.54566329    -0.71000
O166        O  0.19374201  0.38622079  0.48500134    -0.70800
O167        O  0.23150722  0.38059702  0.63119058    -0.70300
O168        O  0.28162689  0.47403313  0.48465642    -0.71000
O169        O  0.28776574  0.43679129  0.63101215    -0.70600
O170        O  0.17631981  0.35127025  0.54614919    -0.71200
O171        O  0.15089302  0.43673686  0.63171428    -0.70600
O172        O  0.19374054  0.47394835  0.48501478    -0.71300
O173        O  0.15089131  0.38053815  0.63169867    -0.70700
O174        O  0.17630943  0.49145881  0.54616792    -0.71200
O175        O  0.23151186  0.51729532  0.63120893    -0.71100
O176        O  0.28776711  0.51735012  0.63102693    -0.70900
C177        C  0.31470977  0.49056932  0.50449038     0.80900
C178        C  0.17723200  0.35321562  0.50496451     0.81400
C179        C  0.26671054  0.40165014  0.64335565     0.80300
C180        C  0.13682446  0.40160189  0.64408036     0.80700
C181        C  0.17722680  0.49043807  0.50498162     0.81900
C182        C  0.26671469  0.53143867  0.64337389     0.80900
C183        C  0.00051870  0.33345366  0.78776130     0.49200
H184        H  0.00032021  0.33335527  0.82384579     0.00200
C185        C  0.00102980  0.33370556  0.70309297     0.49300
H186        H  0.00123169  0.66713803  0.66700416     0.00200
C187        C  0.31357338  0.35390137  0.76754968    -0.13500
C188        C  0.04142436  0.35390479  0.76795217    -0.13200
C189        C  0.31357115  0.62606011  0.76755217    -0.13600
C190        C  0.31380855  0.35408870  0.72312810    -0.13600
C191        C  0.04180558  0.35409274  0.72353270    -0.13200
C192        C  0.31380907  0.62610434  0.72313169    -0.13500
Zn193      Zn  0.16670404  0.58323377  0.43804117     1.49700
Zn194      Zn  0.08474888  0.50121346  0.43726760     1.49400
Zn195      Zn  0.08473917  0.58331535  0.43725802     1.48900
Zn196      Zn  0.11246963  0.55614201  0.35370574     1.49500
O197        O  0.11215242  0.55596941  0.41734473    -1.80400
O198        O  0.17866616  0.54555045  0.47176413    -0.71000
O199        O  0.03492999  0.48912127  0.47083903    -0.70800
O200        O  0.12232210  0.63311548  0.47099038    -0.70300
O201        O  0.12231982  0.48897668  0.47100687    -0.71000
O202        O  0.17866316  0.63287245  0.47175868    -0.70600
O203        O  0.03491862  0.54557951  0.47083059    -0.71200
O204        O  0.08605443  0.58284493  0.32861848    -0.70600
O205        O  0.06623493  0.46411240  0.38633667    -0.71300
O206        O  0.06622416  0.60192269  0.38633466    -0.70700
O207        O  0.08605065  0.50302697  0.32862197    -0.71200
O208        O  0.16580194  0.58281556  0.32950593    -0.71100
O209        O  0.20426090  0.60202020  0.38763162    -0.70900
C210        C  0.15856727  0.50915243  0.48075793     0.80900
C211        C  0.01872146  0.50924724  0.48017586     0.81400
C212        C  0.15856909  0.64917910  0.48074184     0.80300
C213        C  0.06904180  0.59952955  0.34547434     0.80700
C214        C  0.06904296  0.46932947  0.34547759     0.81900
C215        C  0.19934624  0.59957951  0.34673434     0.80900
Zn216      Zn  0.08447664  0.50132455  0.05086095     1.49700
Zn217      Zn  0.08446477  0.58294465  0.05084327     1.49400
Zn218      Zn  0.11136622  0.55560895  0.13506837     1.49100
Zn219      Zn  0.16629467  0.58303682  0.05147573     1.49500
O220        O  0.11167268  0.55574000  0.07143258    -1.80400
O221        O  0.03558749  0.48949827  0.01632896    -0.71000
O222        O  0.06557895  0.60164169  0.10146075    -0.70800
O223        O  0.08458724  0.50233816  0.15956317    -0.70300
O224        O  0.03558350  0.54586936  0.01630900    -0.71000
O225        O  0.06560515  0.46377997  0.10150480    -0.70600
O226        O  0.08458725  0.58211056  0.15953288    -0.71200
O227        O  0.20348067  0.60163583  0.10262765    -0.70600
O228        O  0.12171248  0.63188695  0.01658231    -0.71300
O229        O  0.16447301  0.58217400  0.16031189    -0.70700
O230        O  0.17820573  0.63206603  0.01707311    -0.71200
O231        O  0.17820967  0.54591217  0.01707767    -0.71100
O232        O  0.12171590  0.48960382  0.01660391    -0.70900
C233        C  0.01963696  0.50970692  0.00640367     0.80900
C234        C  0.06790199  0.59900039  0.14237918     0.81400
C235        C  0.06791548  0.46875800  0.14242077     0.80300
C236        C  0.19821440  0.59902649  0.14351677     0.80700
C237        C  0.15795252  0.64793672  0.00694589     0.81900
C238        C  0.15795460  0.50978672  0.00695865     0.80900
C239        C  0.00126044  0.33387552  0.28672400     0.49200
H240        H  0.00161699  0.33405082  0.32282546     0.00200
C241        C  0.00037242  0.33344131  0.20206085     0.49300
H242        H  0.00001622  0.33326755  0.16597814     0.00200
C243        C  0.02143573  0.64672516  0.26634576    -0.13500
C244        C  0.29362537  0.64672858  0.26707891    -0.13200
C245        C  0.02143483  0.37453678  0.26635483    -0.13600
C246        C  0.02095969  0.64649765  0.22193915    -0.13600
C247        C  0.29313224  0.64648659  0.22267022    -0.13200
C248        C  0.02096043  0.37429990  0.22195021    -0.13500
C249        C  0.03786243  0.40848744  0.19507082    -0.09500
C250        C  0.05137874  0.43570491  0.17053484    -0.11100
C251        C  0.25849931  0.62917330  0.19636569    -0.09500
C252        C  0.23113508  0.61549091  0.17195426    -0.11100
C253        C  0.05136596  0.61552238  0.17048787    -0.09500
C254        C  0.03785760  0.62921822  0.19504299    -0.11100
C255        C  0.25959714  0.62971607  0.29415573    -0.09500
C256        C  0.23243253  0.61613097  0.31873468    -0.11100
C257        C  0.05257421  0.43638631  0.31716824    -0.09500
C258        C  0.03882245  0.40901839  0.29281664    -0.11100
C259        C  0.03882838  0.62963009  0.29280517    -0.09500
C260        C  0.05257820  0.61601313  0.31716308    -0.11100
C261        C  0.28301477  0.38538158  0.67236597    -0.09500
C262        C  0.29670745  0.37150976  0.69654312    -0.11100
C263        C  0.10428854  0.38533004  0.67323025    -0.09500
C264        C  0.07660018  0.37148629  0.69728811    -0.11100
C265        C  0.28302270  0.56401071  0.67238315    -0.09500
C266        C  0.29671380  0.59157934  0.69655303    -0.11100
C267        C  0.29627625  0.37098607  0.79426512    -0.09500
C268        C  0.28259216  0.38454255  0.81884587    -0.11100
C269        C  0.10267223  0.38453715  0.81969433    -0.09500
C270        C  0.07554475  0.37096947  0.79499963    -0.11100
C271        C  0.29626370  0.59167882  0.79426452    -0.09500
C272        C  0.28256957  0.56443322  0.81883584    -0.11100
Zn273      Zn  0.25007037  0.83249537  0.93901080     1.49700
Zn274      Zn  0.25008180  0.75066406  0.93901507     1.49400
Zn275      Zn  0.16836195  0.75072990  0.93945153     1.49100
Zn276      Zn  0.22267039  0.77786395  0.85515720     1.49500
O277        O  0.22279233  0.77793559  0.91879663    -1.80400
O278        O  0.29906867  0.84427764  0.97328814    -0.71000
O279        O  0.21305142  0.70177360  0.97362194    -0.70800
O280        O  0.15667865  0.78794494  0.97390660    -0.70300
O281        O  0.29907252  0.78788653  0.97330280    -0.71000
O282        O  0.21304769  0.84436905  0.97362321    -0.70600
O283        O  0.15668251  0.70183402  0.97389507    -0.71200
O284        O  0.16932187  0.75118484  0.83075769    -0.70600
O285        O  0.26872376  0.73185838  0.88810261    -0.71300
O286        O  0.13072168  0.73191059  0.88879984    -0.70700
O287        O  0.24922079  0.75117125  0.83026956    -0.71200
O288        O  0.24921056  0.83110157  0.83026161    -0.71100
O289        O  0.26869678  0.86992348  0.88809028    -0.70900
C290        C  0.31503273  0.82406532  0.98316699     0.80900
C291        C  0.17690996  0.68586283  0.98368377     0.81400
C292        C  0.17690769  0.82414371  0.98369312     0.80300
C293        C  0.13571677  0.73439466  0.84787577     0.80700
C294        C  0.26609434  0.73436214  0.84719307     0.81900
C295        C  0.26607278  0.86478495  0.84718227     0.80900
Zn296      Zn  0.27706814  0.80506034  0.59337023     1.49700
Zn297      Zn  0.22310666  0.77809842  0.50645395     1.49400
Zn298      Zn  0.19636477  0.72444896  0.59370941     1.49100
Zn299      Zn  0.19636119  0.80497788  0.59372115     1.49500
O300        O  0.22322698  0.77814808  0.57074712    -1.80400
O301        O  0.31676840  0.82491905  0.54566328    -0.71000
O302        O  0.19374209  0.71955411  0.48500140    -0.70800
O303        O  0.23150727  0.71393044  0.63119053    -0.70300
O304        O  0.28162690  0.80736655  0.48465638    -0.71000
O305        O  0.28776576  0.77012452  0.63101210    -0.70600
O306        O  0.17631980  0.68460360  0.54614921    -0.71200
O307        O  0.15089303  0.77007027  0.63171430    -0.70600
O308        O  0.19374051  0.80728174  0.48501493    -0.71300
O309        O  0.15089134  0.71387158  0.63169868    -0.70700
O310        O  0.17630956  0.82479224  0.54616792    -0.71200
O311        O  0.23151179  0.85062860  0.63120894    -0.71100
O312        O  0.28776699  0.85068334  0.63102696    -0.70900
C313        C  0.31470975  0.82390269  0.50449039     0.80900
C314        C  0.17723197  0.68654894  0.50496454     0.81400
C315        C  0.26671059  0.73498342  0.64335558     0.80300
C316        C  0.13682442  0.73493528  0.64408032     0.80700
C317        C  0.17722668  0.82377136  0.50498166     0.81900
C318        C  0.26671463  0.86477198  0.64337388     0.80900
C319        C  0.00051864  0.66678699  0.78776129     0.49200
H320        H  0.00032015  0.66668871  0.82384589     0.00200
C321        C  0.00102980  0.66703892  0.70309293     0.49300
H322        H  0.00123168  0.00047150  0.66700510     0.00200
C323        C  0.31357339  0.68723465  0.76754981    -0.13500
C324        C  0.04142431  0.68723812  0.76795219    -0.13200
C325        C  0.31357109  0.95939339  0.76755199    -0.13600
C326        C  0.31380857  0.68742199  0.72312803    -0.13600
C327        C  0.04180557  0.68742608  0.72353271    -0.13200
C328        C  0.31380898  0.95943761  0.72313171    -0.13500
Zn329      Zn  0.16670400  0.91656710  0.43804116     1.49700
Zn330      Zn  0.08474890  0.83454687  0.43726756     1.49400
Zn331      Zn  0.08473915  0.91664874  0.43725801     1.48900
Zn332      Zn  0.11246970  0.88947539  0.35370576     1.49500
O333        O  0.11215242  0.88930280  0.41734474    -1.80400
O334        O  0.17866609  0.87888383  0.47176415    -0.71000
O335        O  0.03493000  0.82245468  0.47083903    -0.70800
O336        O  0.12232206  0.96644888  0.47099034    -0.70300
O337        O  0.12231974  0.82230990  0.47100696    -0.71000
O338        O  0.17866309  0.96620581  0.47175868    -0.70600
O339        O  0.03491859  0.87891289  0.47083066    -0.71200
O340        O  0.08605440  0.91617824  0.32861849    -0.70600
O341        O  0.06623501  0.79744584  0.38633665    -0.71300
O342        O  0.06622410  0.93525597  0.38633461    -0.70700
O343        O  0.08605066  0.83636034  0.32862194    -0.71200
O344        O  0.16580196  0.91614896  0.32950589    -0.71100
O345        O  0.20426092  0.93535363  0.38763161    -0.70900
C346        C  0.15856721  0.84248576  0.48075792     0.80900
C347        C  0.01872144  0.84258061  0.48017587     0.81400
C348        C  0.15856904  0.98251245  0.48074188     0.80300
C349        C  0.06904178  0.93286286  0.34547432     0.80700
C350        C  0.06904300  0.80266287  0.34547757     0.81900
C351        C  0.19934625  0.93291286  0.34673433     0.80900
Zn352      Zn  0.08447671  0.83465791  0.05086096     1.49700
Zn353      Zn  0.08446473  0.91627799  0.05084327     1.49400
Zn354      Zn  0.11136619  0.88894232  0.13506837     1.49100
Zn355      Zn  0.16629462  0.91637011  0.05147572     1.49500
O356        O  0.11167264  0.88907334  0.07143260    -1.80400
O357        O  0.03558750  0.82283169  0.01632896    -0.71000
O358        O  0.06557895  0.93497511  0.10146074    -0.70800
O359        O  0.08458732  0.83567143  0.15956314    -0.70300
O360        O  0.03558349  0.87920276  0.01630903    -0.71000
O361        O  0.06560525  0.79711323  0.10150476    -0.70600
O362        O  0.08458711  0.91544379  0.15953288    -0.71200
O363        O  0.20348072  0.93496918  0.10262759    -0.70600
O364        O  0.12171233  0.96522024  0.01658226    -0.71300
O365        O  0.16447307  0.91550744  0.16031187    -0.70700
O366        O  0.17820571  0.96539929  0.01707305    -0.71200
O367        O  0.17820969  0.87924554  0.01707765    -0.71100
O368        O  0.12171600  0.82293718  0.01660390    -0.70900
C369        C  0.01963695  0.84304023  0.00640367     0.80900
C370        C  0.06790196  0.93233375  0.14237918     0.81400
C371        C  0.06791549  0.80209130  0.14242072     0.80300
C372        C  0.19821444  0.93235993  0.14351671     0.80700
C373        C  0.15795253  0.98126997  0.00694586     0.81900
C374        C  0.15795478  0.84312021  0.00695860     0.80900
C375        C  0.00126040  0.66720881  0.28672398     0.49200
H376        H  0.00161707  0.66738421  0.32282563     0.00200
C377        C  0.00037244  0.66677460  0.20206088     0.49300
H378        H  0.00001619  0.66660101  0.16597804     0.00200
C379        C  0.02143572  0.98005853  0.26634578    -0.13500
C380        C  0.29362541  0.98006202  0.26707891    -0.13200
C381        C  0.02143471  0.70787008  0.26635486    -0.13600
C382        C  0.02095968  0.97983103  0.22193916    -0.13600
C383        C  0.29313234  0.97982004  0.22267019    -0.13200
C384        C  0.02096039  0.70763319  0.22195020    -0.13500
C385        C  0.03786243  0.74182079  0.19507075    -0.09500
C386        C  0.05137884  0.76903826  0.17053477    -0.11100
C387        C  0.25849932  0.96250673  0.19636563    -0.09500
C388        C  0.23113511  0.94882433  0.17195417    -0.11100
C389        C  0.05136593  0.94885574  0.17048785    -0.09500
C390        C  0.03785758  0.96255159  0.19504299    -0.11100
C391        C  0.25959713  0.96304945  0.29415569    -0.09500
C392        C  0.23243256  0.94946444  0.31873470    -0.11100
C393        C  0.05257427  0.76971973  0.31716822    -0.09500
C394        C  0.03882246  0.74235179  0.29281662    -0.11100
C395        C  0.03882843  0.96296341  0.29280516    -0.09500
C396        C  0.05257820  0.94934637  0.31716304    -0.11100
C397        C  0.28301484  0.71871493  0.67236588    -0.09500
C398        C  0.29670749  0.70484306  0.69654302    -0.11100
C399        C  0.10428857  0.71866347  0.67323023    -0.09500
C400        C  0.07660018  0.70481962  0.69728809    -0.11100
C401        C  0.28302268  0.89734405  0.67238320    -0.09500
C402        C  0.29671377  0.92491271  0.69655304    -0.11100
C403        C  0.29627619  0.70431933  0.79426506    -0.09500
C404        C  0.28259207  0.71787572  0.81884585    -0.11100
C405        C  0.10267222  0.71787044  0.81969437    -0.09500
C406        C  0.07554475  0.70430276  0.79499963    -0.11100
C407        C  0.29626366  0.92501221  0.79426460    -0.09500
C408        C  0.28256950  0.89776653  0.81883583    -0.11100
Zn409      Zn  0.58340375  0.16582874  0.93901081     1.49700
Zn410      Zn  0.58341511  0.08399737  0.93901508     1.49400
Zn411      Zn  0.50169530  0.08406327  0.93945153     1.49100
Zn412      Zn  0.55600369  0.11119724  0.85515721     1.49500
O413        O  0.55612567  0.11126895  0.91879665    -1.80400
O414        O  0.63240198  0.17761087  0.97328816    -0.71000
O415        O  0.54638477  0.03510695  0.97362194    -0.70800
O416        O  0.49001206  0.12127838  0.97390661    -0.70300
O417        O  0.63240591  0.12121991  0.97330283    -0.71000
O418        O  0.54638109  0.17770251  0.97362323    -0.70600
O419        O  0.49001584  0.03516731  0.97389505    -0.71200
O420        O  0.50265517  0.08451808  0.83075770    -0.70600
O421        O  0.60205713  0.06519181  0.88810260    -0.71300
O422        O  0.46405498  0.06524390  0.88879988    -0.70700
O423        O  0.58255412  0.08450460  0.83026954    -0.71200
O424        O  0.58254383  0.16443481  0.83026161    -0.71100
O425        O  0.60203015  0.20325686  0.88809025    -0.70900
C426        C  0.64836610  0.15739875  0.98316700     0.80900
C427        C  0.51024329  0.01919613  0.98368373     0.81400
C428        C  0.51024102  0.15747710  0.98369311     0.80300
C429        C  0.46905008  0.06772797  0.84787580     0.80700
C430        C  0.59942763  0.06769548  0.84719307     0.81900
C431        C  0.59940619  0.19811824  0.84718225     0.80900
Zn432      Zn  0.61040148  0.13839369  0.59337026     1.49700
Zn433      Zn  0.55643999  0.11143169  0.50645395     1.49400
Zn434      Zn  0.52969813  0.05778233  0.59370943     1.49100
Zn435      Zn  0.52969448  0.13831113  0.59372115     1.49500
O436        O  0.55656034  0.11148141  0.57074712    -1.80400
O437        O  0.65010176  0.15825249  0.54566330    -0.71000
O438        O  0.52707542  0.05288746  0.48500137    -0.70800
O439        O  0.56484065  0.04726384  0.63119059    -0.70300
O440        O  0.61496018  0.14069976  0.48465638    -0.71000
O441        O  0.62109913  0.10345795  0.63101212    -0.70600
O442        O  0.50965314  0.01793693  0.54614923    -0.71200
O443        O  0.48422637  0.10340364  0.63171428    -0.70600
O444        O  0.52707379  0.14061493  0.48501476    -0.71300
O445        O  0.48422460  0.04720478  0.63169870    -0.70700
O446        O  0.50964281  0.15812540  0.54616790    -0.71200
O447        O  0.56484510  0.18396193  0.63120890    -0.71100
O448        O  0.62110036  0.18401673  0.63102693    -0.70900
C449        C  0.64804306  0.15723594  0.50449039     0.80900
C450        C  0.51056531  0.01988230  0.50496455     0.81400
C451        C  0.60004396  0.06831683  0.64335565     0.80300
C452        C  0.47015776  0.06826859  0.64408033     0.80700
C453        C  0.51056006  0.15710463  0.50498160     0.81900
C454        C  0.60004793  0.19810528  0.64337389     0.80900
C455        C  0.33385197  0.00012030  0.78776375     0.49200
H456        H  0.33365348  0.00002201  0.82383745     0.00200
C457        C  0.33436313  0.00037221  0.70309264     0.49300
H458        H  0.33456511  0.33380474  0.66700501     0.00200
C459        C  0.64690672  0.02056802  0.76754968    -0.13500
C460        C  0.37475770  0.02057155  0.76795203    -0.13200
C461        C  0.64690444  0.29272681  0.76755219    -0.13600
C462        C  0.64714185  0.02075531  0.72312812    -0.13600
C463        C  0.37513894  0.02075945  0.72353277    -0.13200
C464        C  0.64714230  0.29277102  0.72313165    -0.13500
Zn465      Zn  0.50003730  0.24990036  0.43804114     1.49700
Zn466      Zn  0.41808216  0.16788007  0.43726758     1.49400
Zn467      Zn  0.41807244  0.24998200  0.43725804     1.48900
Zn468      Zn  0.44580304  0.22280873  0.35370577     1.49500
O469        O  0.44548573  0.22263607  0.41734474    -1.80400
O470        O  0.51199937  0.21221700  0.47176415    -0.71000
O471        O  0.36826326  0.15578797  0.47083905    -0.70800
O472        O  0.45565538  0.29978215  0.47099036    -0.70300
O473        O  0.45565307  0.15564325  0.47100694    -0.71000
O474        O  0.51199641  0.29953911  0.47175863    -0.70600
O475        O  0.36825193  0.21224624  0.47083065    -0.71200
O476        O  0.41938778  0.24951162  0.32861849    -0.70600
O477        O  0.39956828  0.13077906  0.38633670    -0.71300
O478        O  0.39955739  0.26858930  0.38633465    -0.70700
O479        O  0.41938397  0.16969362  0.32862200    -0.71200
O480        O  0.49913541  0.24948236  0.32950595    -0.71100
O481        O  0.53759427  0.26868699  0.38763164    -0.70900
C482        C  0.49190054  0.17581897  0.48075788     0.80900
C483        C  0.35205473  0.17591393  0.48017585     0.81400
C484        C  0.49190238  0.31584577  0.48074182     0.80300
C485        C  0.40237513  0.26619621  0.34547434     0.80700
C486        C  0.40237630  0.13599615  0.34547761     0.81900
C487        C  0.53267967  0.26624629  0.34673437     0.80900
Zn488      Zn  0.41781008  0.16799134  0.05086098     1.49700
Zn489      Zn  0.41779808  0.24961140  0.05084328     1.49400
Zn490      Zn  0.44469952  0.22227569  0.13506834     1.49100
Zn491      Zn  0.49962799  0.24970352  0.05147571     1.49500
O492        O  0.44500599  0.22240673  0.07143259    -1.80400
O493        O  0.36892090  0.15616516  0.01632896    -0.71000
O494        O  0.39891229  0.26830850  0.10146074    -0.70800
O495        O  0.41792069  0.16900486  0.15956313    -0.70300
O496        O  0.36891680  0.21253605  0.01630904    -0.71000
O497        O  0.39893862  0.13044663  0.10150477    -0.70600
O498        O  0.41792046  0.24877717  0.15953288    -0.71200
O499        O  0.53681409  0.26830245  0.10262744    -0.70600
O500        O  0.45504566  0.29855361  0.01658224    -0.71300
O501        O  0.49780647  0.24884085  0.16031184    -0.70700
O502        O  0.51153903  0.29873265  0.01707308    -0.71200
O503        O  0.51154300  0.21257894  0.01707762    -0.71100
O504        O  0.45504938  0.15627060  0.01660390    -0.70900
C505        C  0.35297028  0.17637349  0.00640369     0.80900
C506        C  0.40123523  0.26566705  0.14237917     0.81400
C507        C  0.40124889  0.13542470  0.14242072     0.80300
C508        C  0.53154780  0.26569320  0.14351659     0.80700
C509        C  0.49128585  0.31460334  0.00694589     0.81900
C510        C  0.49128822  0.17645367  0.00695863     0.80900
C511        C  0.33459378  0.00054220  0.28672396     0.49200
H512        H  0.33495036  0.00071746  0.32282576     0.00200
C513        C  0.33370581  0.00010798  0.20206098     0.49300
H514        H  0.33334947  0.99993428  0.16597772     0.00200
C515        C  0.35476899  0.31339177  0.26634575    -0.13500
C516        C  0.62695870  0.31339530  0.26707887    -0.13200
C517        C  0.35476811  0.04120346  0.26635485    -0.13600
C518        C  0.35429293  0.31316426  0.22193914    -0.13600
C519        C  0.62646566  0.31315334  0.22267017    -0.13200
C520        C  0.35429376  0.04096656  0.22195018    -0.13500
C521        C  0.37119586  0.07515418  0.19507080    -0.09500
C522        C  0.38471224  0.10237159  0.17053476    -0.11100
C523        C  0.59183265  0.29583996  0.19636553    -0.09500
C524        C  0.56446842  0.28215755  0.17195410    -0.11100
C525        C  0.38469918  0.28218899  0.17048784    -0.09500
C526        C  0.37119079  0.29588479  0.19504297    -0.11100
C527        C  0.59293045  0.29638284  0.29415567    -0.09500
C528        C  0.56576593  0.28279785  0.31873473    -0.11100
C529        C  0.38590761  0.10305308  0.31716821    -0.09500
C530        C  0.37215581  0.07568514  0.29281662    -0.11100
C531        C  0.37216172  0.29629669  0.29280513    -0.09500
C532        C  0.38591151  0.28267971  0.31716305    -0.11100
C533        C  0.61634815  0.05204824  0.67236603    -0.09500
C534        C  0.63004080  0.03817640  0.69654320    -0.11100
C535        C  0.43762186  0.05199670  0.67323026    -0.09500
C536        C  0.40993349  0.03815298  0.69728815    -0.11100
C537        C  0.61635596  0.23067737  0.67238317    -0.09500
C538        C  0.63004704  0.25824601  0.69655302    -0.11100
C539        C  0.62960955  0.03765265  0.79426522    -0.09500
C540        C  0.61592545  0.05120914  0.81884591    -0.11100
C541        C  0.43600553  0.05120372  0.81969441    -0.09500
C542        C  0.40887803  0.03763608  0.79499972    -0.11100
C543        C  0.62959697  0.25834546  0.79426449    -0.09500
C544        C  0.61590283  0.23109983  0.81883581    -0.11100
Zn545      Zn  0.58340371  0.49916212  0.93901079     1.49700
Zn546      Zn  0.58341505  0.41733069  0.93901505     1.49400
Zn547      Zn  0.50169527  0.41739658  0.93945150     1.49100
Zn548      Zn  0.55600375  0.44453064  0.85515720     1.49500
O549        O  0.55612565  0.44460230  0.91879664    -1.80400
O550        O  0.63240201  0.51094424  0.97328813    -0.71000
O551        O  0.54638472  0.36844022  0.97362189    -0.70800
O552        O  0.49001188  0.45461158  0.97390665    -0.70300
O553        O  0.63240577  0.45455325  0.97330281    -0.71000
O554        O  0.54638090  0.51103565  0.97362323    -0.70600
O555        O  0.49001582  0.36850070  0.97389504    -0.71200
O556        O  0.50265519  0.41785146  0.83075771    -0.70600
O557        O  0.60205708  0.39852514  0.88810258    -0.71300
O558        O  0.46405496  0.39857730  0.88879989    -0.70700
O559        O  0.58255417  0.41783801  0.83026949    -0.71200
O560        O  0.58254390  0.49776821  0.83026162    -0.71100
O561        O  0.60203008  0.53659020  0.88809024    -0.70900
C562        C  0.64836604  0.49073197  0.98316704     0.80900
C563        C  0.51024315  0.35252942  0.98368363     0.81400
C564        C  0.51024097  0.49081042  0.98369312     0.80300
C565        C  0.46905009  0.40106135  0.84787580     0.80700
C566        C  0.59942766  0.40102886  0.84719303     0.81900
C567        C  0.59940616  0.53145163  0.84718224     0.80900
Zn568      Zn  0.61040139  0.47172705  0.59337026     1.49700
Zn569      Zn  0.55643994  0.44476504  0.50645399     1.49400
Zn570      Zn  0.52969806  0.39111560  0.59370942     1.49100
Zn571      Zn  0.52969444  0.47164451  0.59372114     1.49500
O572        O  0.55656030  0.44481476  0.57074713    -1.80400
O573        O  0.65010176  0.49158581  0.54566332    -0.71000
O574        O  0.52707543  0.38622079  0.48500134    -0.70800
O575        O  0.56484051  0.38059705  0.63119060    -0.70300
O576        O  0.61496021  0.47403312  0.48465645    -0.71000
O577        O  0.62109905  0.43679135  0.63101214    -0.70600
O578        O  0.50965314  0.35127024  0.54614919    -0.71200
O579        O  0.48422628  0.43673686  0.63171427    -0.70600
O580        O  0.52707380  0.47394830  0.48501480    -0.71300
O581        O  0.48422452  0.38053814  0.63169867    -0.70700
O582        O  0.50964278  0.49145881  0.54616793    -0.71200
O583        O  0.56484506  0.51729536  0.63120898    -0.71100
O584        O  0.62110027  0.51735008  0.63102689    -0.70900
C585        C  0.64804307  0.49056929  0.50449042     0.80900
C586        C  0.51056537  0.35321562  0.50496451     0.81400
C587        C  0.60004385  0.40165018  0.64335565     0.80300
C588        C  0.47015769  0.40160189  0.64408034     0.80700
C589        C  0.51056017  0.49043811  0.50498163     0.81900
C590        C  0.60004789  0.53143867  0.64337389     0.80900
C591        C  0.33385199  0.33345366  0.78776376     0.49200
H592        H  0.33365351  0.33335537  0.82383764     0.00200
C593        C  0.33436307  0.33370555  0.70309268     0.49300
H594        H  0.33456508  0.66713799  0.66700424     0.00200
C595        C  0.64690674  0.35390136  0.76754985    -0.13500
C596        C  0.37475769  0.35390485  0.76795203    -0.13200
C597        C  0.64690442  0.62606015  0.76755221    -0.13600
C598        C  0.64714192  0.35408869  0.72312803    -0.13600
C599        C  0.37513889  0.35409274  0.72353274    -0.13200
C600        C  0.64714235  0.62610436  0.72313168    -0.13500
Zn601      Zn  0.50003741  0.58323379  0.43804116     1.49700
Zn602      Zn  0.41808226  0.50121347  0.43726759     1.49400
Zn603      Zn  0.41807254  0.58331536  0.43725800     1.48900
Zn604      Zn  0.44580298  0.55614200  0.35370575     1.49500
O605        O  0.44548580  0.55596942  0.41734473    -1.80400
O606        O  0.51199953  0.54555043  0.47176412    -0.71000
O607        O  0.36826337  0.48912126  0.47083904    -0.70800
O608        O  0.45565549  0.63311549  0.47099038    -0.70300
O609        O  0.45565309  0.48897667  0.47100694    -0.71000
O610        O  0.51199641  0.63287243  0.47175871    -0.70600
O611        O  0.36825193  0.54557950  0.47083055    -0.71200
O612        O  0.41938785  0.58284497  0.32861846    -0.70600
O613        O  0.39956834  0.46411240  0.38633668    -0.71300
O614        O  0.39955755  0.60192270  0.38633465    -0.70700
O615        O  0.41938389  0.50302696  0.32862197    -0.71200
O616        O  0.49913530  0.58281548  0.32950596    -0.71100
O617        O  0.53759429  0.60202038  0.38763160    -0.70900
C618        C  0.49190060  0.50915241  0.48075789     0.80900
C619        C  0.35205479  0.50924721  0.48017579     0.81400
C620        C  0.49190242  0.64917912  0.48074187     0.80300
C621        C  0.40237521  0.59952958  0.34547433     0.80700
C622        C  0.40237624  0.46932947  0.34547759     0.81900
C623        C  0.53267961  0.59957959  0.34673433     0.80900
Zn624      Zn  0.41780996  0.50132453  0.05086095     1.49700
Zn625      Zn  0.41779809  0.58294461  0.05084327     1.49400
Zn626      Zn  0.44469948  0.55560893  0.13506837     1.49100
Zn627      Zn  0.49962795  0.58303680  0.05147576     1.49500
O628        O  0.44500596  0.55573998  0.07143259    -1.80400
O629        O  0.36892075  0.48949830  0.01632898    -0.71000
O630        O  0.39891224  0.60164169  0.10146076    -0.70800
O631        O  0.41792051  0.50233804  0.15956312    -0.70300
O632        O  0.36891678  0.54586941  0.01630900    -0.71000
O633        O  0.39893854  0.46377995  0.10150478    -0.70600
O634        O  0.41792057  0.58211055  0.15953293    -0.71200
O635        O  0.53681395  0.60163582  0.10262762    -0.70600
O636        O  0.45504584  0.63188692  0.01658233    -0.71300
O637        O  0.49780633  0.58217401  0.16031189    -0.70700
O638        O  0.51153910  0.63206603  0.01707311    -0.71200
O639        O  0.51154299  0.54591220  0.01707768    -0.71100
O640        O  0.45504924  0.48960382  0.01660390    -0.70900
C641        C  0.35297025  0.50970687  0.00640363     0.80900
C642        C  0.40123528  0.59900036  0.14237919     0.81400
C643        C  0.40124882  0.46875792  0.14242073     0.80300
C644        C  0.53154770  0.59902648  0.14351674     0.80700
C645        C  0.49128590  0.64793669  0.00694588     0.81900
C646        C  0.49128800  0.50978679  0.00695867     0.80900
C647        C  0.33459373  0.33387549  0.28672400     0.49200
H648        H  0.33495042  0.33405085  0.32282556     0.00200
C649        C  0.33370577  0.33344129  0.20206091     0.49300
H650        H  0.33334950  0.33326755  0.16597804     0.00200
C651        C  0.35476907  0.64672516  0.26634578    -0.13500
C652        C  0.62695866  0.64672859  0.26707890    -0.13200
C653        C  0.35476819  0.37453676  0.26635486    -0.13600
C654        C  0.35429303  0.64649768  0.22193916    -0.13600
C655        C  0.62646556  0.64648662  0.22267021    -0.13200
C656        C  0.35429375  0.37429988  0.22195022    -0.13500
C657        C  0.37119582  0.40848741  0.19507078    -0.09500
C658        C  0.38471216  0.43570488  0.17053483    -0.11100
C659        C  0.59183262  0.62917330  0.19636562    -0.09500
C660        C  0.56446835  0.61549087  0.17195423    -0.11100
C661        C  0.38469931  0.61552239  0.17048780    -0.09500
C662        C  0.37119093  0.62921820  0.19504297    -0.11100
C663        C  0.59293046  0.62971611  0.29415570    -0.09500
C664        C  0.56576590  0.61613108  0.31873465    -0.11100
C665        C  0.38590756  0.43638631  0.31716825    -0.09500
C666        C  0.37215581  0.40901840  0.29281664    -0.11100
C667        C  0.37216178  0.62963008  0.29280514    -0.09500
C668        C  0.38591160  0.61601314  0.31716307    -0.11100
C669        C  0.61634811  0.38538163  0.67236602    -0.09500
C670        C  0.63004079  0.37150980  0.69654317    -0.11100
C671        C  0.43762184  0.38533006  0.67323023    -0.09500
C672        C  0.40993351  0.37148632  0.69728816    -0.11100
C673        C  0.61635590  0.56401071  0.67238316    -0.09500
C674        C  0.63004708  0.59157936  0.69655303    -0.11100
C675        C  0.62960962  0.37098609  0.79426512    -0.09500
C676        C  0.61592552  0.38454255  0.81884585    -0.11100
C677        C  0.43600559  0.38453714  0.81969435    -0.09500
C678        C  0.40887806  0.37096943  0.79499972    -0.11100
C679        C  0.62959702  0.59167886  0.79426449    -0.09500
C680        C  0.61590285  0.56443324  0.81883578    -0.11100
Zn681      Zn  0.58340362  0.83249534  0.93901076     1.49700
Zn682      Zn  0.58341513  0.75066406  0.93901509     1.49400
Zn683      Zn  0.50169520  0.75072987  0.93945155     1.49100
Zn684      Zn  0.55600371  0.77786394  0.85515722     1.49500
O685        O  0.55612562  0.77793558  0.91879664    -1.80400
O686        O  0.63240195  0.84427758  0.97328814    -0.71000
O687        O  0.54638480  0.70177360  0.97362193    -0.70800
O688        O  0.49001194  0.78794491  0.97390664    -0.70300
O689        O  0.63240580  0.78788653  0.97330282    -0.71000
O690        O  0.54638089  0.84436900  0.97362318    -0.70600
O691        O  0.49001585  0.70183395  0.97389502    -0.71200
O692        O  0.50265514  0.75118487  0.83075780    -0.70600
O693        O  0.60205713  0.73185840  0.88810261    -0.71300
O694        O  0.46405499  0.73191057  0.88879985    -0.70700
O695        O  0.58255400  0.75117120  0.83026953    -0.71200
O696        O  0.58254398  0.83110157  0.83026161    -0.71100
O697        O  0.60203010  0.86992348  0.88809027    -0.70900
C698        C  0.64836600  0.82406539  0.98316705     0.80900
C699        C  0.51024333  0.68586281  0.98368376     0.81400
C700        C  0.51024098  0.82414371  0.98369316     0.80300
C701        C  0.46905006  0.73439466  0.84787579     0.80700
C702        C  0.59942764  0.73436216  0.84719305     0.81900
C703        C  0.59940617  0.86478496  0.84718227     0.80900
Zn704      Zn  0.61040146  0.80506033  0.59337023     1.49700
Zn705      Zn  0.55643992  0.77809843  0.50645398     1.49400
Zn706      Zn  0.52969810  0.72444898  0.59370939     1.49100
Zn707      Zn  0.52969447  0.80497789  0.59372114     1.49500
O708        O  0.55656030  0.77814810  0.57074713    -1.80400
O709        O  0.65010174  0.82491900  0.54566328    -0.71000
O710        O  0.52707538  0.71955410  0.48500140    -0.70800
O711        O  0.56484064  0.71393045  0.63119052    -0.70300
O712        O  0.61496024  0.80736657  0.48465641    -0.71000
O713        O  0.62109903  0.77012452  0.63101216    -0.70600
O714        O  0.50965318  0.68460360  0.54614920    -0.71200
O715        O  0.48422633  0.77007025  0.63171430    -0.70600
O716        O  0.52707388  0.80728172  0.48501478    -0.71300
O717        O  0.48422472  0.71387160  0.63169865    -0.70700
O718        O  0.50964278  0.82479223  0.54616794    -0.71200
O719        O  0.56484517  0.85062861  0.63120893    -0.71100
O720        O  0.62110036  0.85068334  0.63102693    -0.70900
C721        C  0.64804310  0.82390269  0.50449038     0.80900
C722        C  0.51056533  0.68654895  0.50496454     0.81400
C723        C  0.60004389  0.73498343  0.64335564     0.80300
C724        C  0.47015778  0.73493527  0.64408033     0.80700
C725        C  0.51056004  0.82377136  0.50498162     0.81900
C726        C  0.60004801  0.86477198  0.64337387     0.80900
C727        C  0.33385201  0.66678696  0.78776131     0.49200
H728        H  0.33365348  0.66668865  0.82384575     0.00200
C729        C  0.33436318  0.66703892  0.70309291     0.49300
H730        H  0.33456505  0.00047149  0.66700518     0.00200
C731        C  0.64690671  0.68723466  0.76754983    -0.13500
C732        C  0.37475769  0.68723815  0.76795217    -0.13200
C733        C  0.64690446  0.95939337  0.76755200    -0.13600
C734        C  0.64714189  0.68742203  0.72312801    -0.13600
C735        C  0.37513894  0.68742610  0.72353270    -0.13200
C736        C  0.64714236  0.95943761  0.72313172    -0.13500
Zn737      Zn  0.50003738  0.91656712  0.43804116     1.49700
Zn738      Zn  0.41808224  0.83454687  0.43726758     1.49400
Zn739      Zn  0.41807251  0.91664873  0.43725801     1.48900
Zn740      Zn  0.44580301  0.88947541  0.35370574     1.49500
O741        O  0.44548578  0.88930280  0.41734473    -1.80400
O742        O  0.51199949  0.87888387  0.47176411    -0.71000
O743        O  0.36826337  0.82245468  0.47083904    -0.70800
O744        O  0.45565546  0.96644887  0.47099035    -0.70300
O745        O  0.45565309  0.82230993  0.47100687    -0.71000
O746        O  0.51199650  0.96620582  0.47175867    -0.70600
O747        O  0.36825196  0.87891290  0.47083064    -0.71200
O748        O  0.41938772  0.91617821  0.32861846    -0.70600
O749        O  0.39956828  0.79744584  0.38633665    -0.71300
O750        O  0.39955745  0.93525597  0.38633462    -0.70700
O751        O  0.41938401  0.83636035  0.32862194    -0.71200
O752        O  0.49913529  0.91614897  0.32950594    -0.71100
O753        O  0.53759428  0.93535360  0.38763164    -0.70900
C754        C  0.49190056  0.84248579  0.48075792     0.80900
C755        C  0.35205481  0.84258063  0.48017588     0.81400
C756        C  0.49190242  0.98251245  0.48074188     0.80300
C757        C  0.40237511  0.93286285  0.34547431     0.80700
C758        C  0.40237632  0.80266287  0.34547757     0.81900
C759        C  0.53267960  0.93291284  0.34673435     0.80900
Zn760      Zn  0.41780998  0.83465791  0.05086097     1.49700
Zn761      Zn  0.41779810  0.91627801  0.05084326     1.49400
Zn762      Zn  0.44469955  0.88894231  0.13506838     1.49100
Zn763      Zn  0.49962797  0.91637009  0.05147573     1.49500
O764        O  0.44500600  0.88907335  0.07143260    -1.80400
O765        O  0.36892087  0.82283168  0.01632895    -0.71000
O766        O  0.39891234  0.93497512  0.10146075    -0.70800
O767        O  0.41792056  0.83567143  0.15956314    -0.70300
O768        O  0.36891684  0.87920276  0.01630902    -0.71000
O769        O  0.39893842  0.79711323  0.10150476    -0.70600
O770        O  0.41792051  0.91544381  0.15953290    -0.71200
O771        O  0.53681399  0.93496917  0.10262764    -0.70600
O772        O  0.45504577  0.96522023  0.01658227    -0.71300
O773        O  0.49780635  0.91550742  0.16031189    -0.70700
O774        O  0.51153903  0.96539930  0.01707304    -0.71200
O775        O  0.51154302  0.87924555  0.01707770    -0.71100
O776        O  0.45504934  0.82293721  0.01660394    -0.70900
C777        C  0.35297031  0.84304027  0.00640366     0.80900
C778        C  0.40123535  0.93233377  0.14237919     0.81400
C779        C  0.40124879  0.80209130  0.14242072     0.80300
C780        C  0.53154773  0.93235989  0.14351676     0.80700
C781        C  0.49128583  0.98126999  0.00694584     0.81900
C782        C  0.49128807  0.84312019  0.00695864     0.80900
C783        C  0.33459379  0.66720884  0.28672401     0.49200
H784        H  0.33495038  0.66738422  0.32282562     0.00200
C785        C  0.33370570  0.66677458  0.20206095     0.49300
H786        H  0.33334958  0.66660098  0.16597790     0.00200
C787        C  0.35476907  0.98005853  0.26634580    -0.13500
C788        C  0.62695874  0.98006199  0.26707891    -0.13200
C789        C  0.35476811  0.70787009  0.26635489    -0.13600
C790        C  0.35429303  0.97983102  0.22193919    -0.13600
C791        C  0.62646561  0.97982003  0.22267022    -0.13200
C792        C  0.35429370  0.70763318  0.22195023    -0.13500
C793        C  0.37119574  0.74182078  0.19507077    -0.09500
C794        C  0.38471206  0.76903826  0.17053477    -0.11100
C795        C  0.59183265  0.96250672  0.19636569    -0.09500
C796        C  0.56446843  0.94882435  0.17195422    -0.11100
C797        C  0.38469930  0.94885575  0.17048786    -0.09500
C798        C  0.37119096  0.96255162  0.19504300    -0.11100
C799        C  0.59293050  0.96304946  0.29415573    -0.09500
C800        C  0.56576589  0.94946439  0.31873469    -0.11100
C801        C  0.38590758  0.76971973  0.31716822    -0.09500
C802        C  0.37215579  0.74235179  0.29281663    -0.11100
C803        C  0.37216171  0.96296341  0.29280516    -0.09500
C804        C  0.38591145  0.94934638  0.31716307    -0.11100
C805        C  0.61634809  0.71871492  0.67236594    -0.09500
C806        C  0.63004075  0.70484307  0.69654305    -0.11100
C807        C  0.43762190  0.71866345  0.67323025    -0.09500
C808        C  0.40993352  0.70481962  0.69728811    -0.11100
C809        C  0.61635607  0.89734405  0.67238319    -0.09500
C810        C  0.63004717  0.92491271  0.69655305    -0.11100
C811        C  0.62960954  0.70431941  0.79426501    -0.09500
C812        C  0.61592539  0.71787575  0.81884584    -0.11100
C813        C  0.43600557  0.71787046  0.81969435    -0.09500
C814        C  0.40887807  0.70430277  0.79499965    -0.11100
C815        C  0.62959707  0.92501220  0.79426461    -0.09500
C816        C  0.61590292  0.89776652  0.81883583    -0.11100
Zn817      Zn  0.91673708  0.16582872  0.93901078     1.49700
Zn818      Zn  0.91674849  0.08399738  0.93901509     1.49400
Zn819      Zn  0.83502868  0.08406326  0.93945156     1.49100
Zn820      Zn  0.88933705  0.11119724  0.85515722     1.49500
O821        O  0.88945905  0.11126896  0.91879664    -1.80400
O822        O  0.96573533  0.17761083  0.97328815    -0.71000
O823        O  0.87971817  0.03510694  0.97362193    -0.70800
O824        O  0.82334530  0.12127820  0.97390664    -0.70300
O825        O  0.96573922  0.12121991  0.97330286    -0.71000
O826        O  0.87971441  0.17770245  0.97362321    -0.70600
O827        O  0.82334925  0.03516731  0.97389504    -0.71200
O828        O  0.83598846  0.08451811  0.83075780    -0.70600
O829        O  0.93539051  0.06519182  0.88810260    -0.71300
O830        O  0.79738834  0.06524387  0.88879989    -0.70700
O831        O  0.91588736  0.08450456  0.83026948    -0.71200
O832        O  0.91587724  0.16443481  0.83026160    -0.71100
O833        O  0.93536353  0.20325686  0.88809025    -0.70900
C834        C  0.98169941  0.15739883  0.98316707     0.80900
C835        C  0.84357669  0.01919612  0.98368372     0.81400
C836        C  0.84357444  0.15747709  0.98369312     0.80300
C837        C  0.80238340  0.06772794  0.84787583     0.80700
C838        C  0.93276091  0.06769546  0.84719305     0.81900
C839        C  0.93273950  0.19811824  0.84718225     0.80900
Zn840      Zn  0.94373482  0.13839369  0.59337027     1.49700
Zn841      Zn  0.88977324  0.11143169  0.50645398     1.49400
Zn842      Zn  0.86303147  0.05778234  0.59370941     1.49100
Zn843      Zn  0.86302777  0.13831113  0.59372117     1.49500
O844        O  0.88989364  0.11148143  0.57074713    -1.80400
O845        O  0.98343509  0.15825247  0.54566328    -0.71000
O846        O  0.86040874  0.05288746  0.48500137    -0.70800
O847        O  0.89817402  0.04726385  0.63119059    -0.70300
O848        O  0.94829350  0.14069980  0.48465642    -0.71000
O849        O  0.95443241  0.10345795  0.63101218    -0.70600
O850        O  0.84298654  0.01793693  0.54614922    -0.71200
O851        O  0.81755968  0.10340361  0.63171429    -0.70600
O852        O  0.86040714  0.14061492  0.48501477    -0.71300
O853        O  0.81755797  0.04720480  0.63169866    -0.70700
O854        O  0.84297603  0.15812540  0.54616792    -0.71200
O855        O  0.89817848  0.18396194  0.63120890    -0.71100
O856        O  0.95443373  0.18401673  0.63102690    -0.70900
C857        C  0.98137638  0.15723592  0.50449039     0.80900
C858        C  0.84389869  0.01988230  0.50496455     0.81400
C859        C  0.93337727  0.06831684  0.64335571     0.80300
C860        C  0.80349111  0.06826858  0.64408035     0.80700
C861        C  0.84389340  0.15710465  0.50498162     0.81900
C862        C  0.93338131  0.19810528  0.64337389     0.80900
C863        C  0.66718534  0.00012027  0.78776376     0.49200
H864        H  0.66698687  0.00002193  0.82383740     0.00200
C865        C  0.66769648  0.00037224  0.70309266     0.49300
H866        H  0.66789837  0.33380478  0.66700284     0.00200
C867        C  0.98024003  0.02056800  0.76754969    -0.13500
C868        C  0.70809109  0.02057156  0.76795202    -0.13200
C869        C  0.98023782  0.29272679  0.76755217    -0.13600
C870        C  0.98047517  0.02075531  0.72312813    -0.13600
C871        C  0.70847230  0.02075947  0.72353276    -0.13200
C872        C  0.98047570  0.29277100  0.72313168    -0.13500
Zn873      Zn  0.83337067  0.24990037  0.43804114     1.49700
Zn874      Zn  0.75141550  0.16788007  0.43726759     1.49400
Zn875      Zn  0.75140579  0.24998198  0.43725803     1.48900
Zn876      Zn  0.77913633  0.22280874  0.35370575     1.49500
O877        O  0.77881909  0.22263607  0.41734473    -1.80400
O878        O  0.84533277  0.21221704  0.47176413    -0.71000
O879        O  0.70159664  0.15578798  0.47083903    -0.70800
O880        O  0.78898876  0.29978217  0.47099037    -0.70300
O881        O  0.78898642  0.15564327  0.47100687    -0.71000
O882        O  0.84532978  0.29953910  0.47175861    -0.70600
O883        O  0.70158529  0.21224624  0.47083061    -0.71200
O884        O  0.75272107  0.24951158  0.32861846    -0.70600
O885        O  0.73290155  0.13077906  0.38633670    -0.71300
O886        O  0.73289076  0.26858929  0.38633465    -0.70700
O887        O  0.75271733  0.16969363  0.32862199    -0.71200
O888        O  0.83246865  0.24948240  0.32950594    -0.71100
O889        O  0.87092762  0.26868695  0.38763164    -0.70900
C890        C  0.82523387  0.17581902  0.48075792     0.80900
C891        C  0.68538813  0.17591395  0.48017588     0.81400
C892        C  0.82523575  0.31584577  0.48074181     0.80300
C893        C  0.73570840  0.26619616  0.34547433     0.80700
C894        C  0.73570965  0.13599614  0.34547761     0.81900
C895        C  0.86601296  0.26624626  0.34673436     0.80900
Zn896      Zn  0.75114337  0.16799134  0.05086095     1.49700
Zn897      Zn  0.75113145  0.24961142  0.05084328     1.49400
Zn898      Zn  0.77803290  0.22227568  0.13506835     1.49100
Zn899      Zn  0.83296136  0.24970348  0.05147570     1.49500
O900        O  0.77833935  0.22240673  0.07143259    -1.80400
O901        O  0.70225426  0.15616514  0.01632895    -0.71000
O902        O  0.73224568  0.26830850  0.10146076    -0.70800
O903        O  0.75125411  0.16900485  0.15956313    -0.70300
O904        O  0.70225014  0.21253605  0.01630902    -0.71000
O905        O  0.73227182  0.13044663  0.10150477    -0.70600
O906        O  0.75125385  0.24877717  0.15953290    -0.71200
O907        O  0.87014738  0.26830245  0.10262746    -0.70600
O908        O  0.78837911  0.29855360  0.01658229    -0.71300
O909        O  0.83113987  0.24884084  0.16031182    -0.70700
O910        O  0.84487236  0.29873265  0.01707311    -0.71200
O911        O  0.84487642  0.21257896  0.01707763    -0.71100
O912        O  0.78838274  0.15627061  0.01660392    -0.70900
C913        C  0.68630362  0.17637352  0.00640368     0.80900
C914        C  0.73456862  0.26566706  0.14237919     0.81400
C915        C  0.73458220  0.13542470  0.14242072     0.80300
C916        C  0.86488117  0.26569320  0.14351661     0.80700
C917        C  0.82461915  0.31460334  0.00694588     0.81900
C918        C  0.82462148  0.17645357  0.00695861     0.80900
C919        C  0.66792714  0.00054221  0.28672399     0.49200
H920        H  0.66828365  0.00071744  0.32282558     0.00200
C921        C  0.66703906  0.00010794  0.20206094     0.49300
H922        H  0.66668287  0.99993429  0.16597781     0.00200
C923        C  0.68810234  0.31339177  0.26634577    -0.13500
C924        C  0.96029204  0.31339526  0.26707888    -0.13200
C925        C  0.68810152  0.04120347  0.26635484    -0.13600
C926        C  0.68762631  0.31316427  0.22193917    -0.13600
C927        C  0.95979895  0.31315333  0.22267020    -0.13200
C928        C  0.68762710  0.04096654  0.22195018    -0.13500
C929        C  0.70452918  0.07515416  0.19507079    -0.09500
C930        C  0.71804553  0.10237158  0.17053476    -0.11100
C931        C  0.92516603  0.29583997  0.19636553    -0.09500
C932        C  0.89780179  0.28215757  0.17195414    -0.11100
C933        C  0.71803256  0.28218900  0.17048786    -0.09500
C934        C  0.70452419  0.29588481  0.19504299    -0.11100
C935        C  0.92626382  0.29638283  0.29415568    -0.09500
C936        C  0.89909926  0.28279782  0.31873469    -0.11100
C937        C  0.71924098  0.10305307  0.31716819    -0.09500
C938        C  0.70548922  0.07568512  0.29281662    -0.11100
C939        C  0.70549497  0.29629667  0.29280516    -0.09500
C940        C  0.71924476  0.28267970  0.31716308    -0.11100
C941        C  0.94968141  0.05204822  0.67236610    -0.09500
C942        C  0.96337407  0.03817639  0.69654323    -0.11100
C943        C  0.77095517  0.05199667  0.67323028    -0.09500
C944        C  0.74326681  0.03815296  0.69728816    -0.11100
C945        C  0.94968935  0.23067737  0.67238316    -0.09500
C946        C  0.96338044  0.25824600  0.69655303    -0.11100
C947        C  0.96294284  0.03765261  0.79426519    -0.09500
C948        C  0.94925872  0.05120910  0.81884590    -0.11100
C949        C  0.76933890  0.05120372  0.81969444    -0.09500
C950        C  0.74221141  0.03763608  0.79499975    -0.11100
C951        C  0.96293033  0.25834544  0.79426450    -0.09500
C952        C  0.94923622  0.23109981  0.81883582    -0.11100
Zn953      Zn  0.91673709  0.49916209  0.93901080     1.49700
Zn954      Zn  0.91674841  0.41733068  0.93901506     1.49400
Zn955      Zn  0.83502859  0.41739651  0.93945152     1.49100
Zn956      Zn  0.88933703  0.44453062  0.85515720     1.49500
O957        O  0.88945899  0.44460225  0.91879664    -1.80400
O958        O  0.96573533  0.51094430  0.97328815    -0.71000
O959        O  0.87971805  0.36844021  0.97362191    -0.70800
O960        O  0.82334528  0.45461156  0.97390665    -0.70300
O961        O  0.96573916  0.45455328  0.97330279    -0.71000
O962        O  0.87971429  0.51103562  0.97362321    -0.70600
O963        O  0.82334915  0.36850063  0.97389504    -0.71200
O964        O  0.83598849  0.41785148  0.83075773    -0.70600
O965        O  0.93539046  0.39852515  0.88810259    -0.71300
O966        O  0.79738826  0.39857720  0.88879982    -0.70700
O967        O  0.91588751  0.41783800  0.83026952    -0.71200
O968        O  0.91587719  0.49776821  0.83026163    -0.71100
O969        O  0.93536345  0.53659019  0.88809025    -0.70900
C970        C  0.98169939  0.49073197  0.98316702     0.80900
C971        C  0.84357660  0.35252944  0.98368374     0.81400
C972        C  0.84357436  0.49081039  0.98369312     0.80300
C973        C  0.80238339  0.40106135  0.84787577     0.80700
C974        C  0.93276103  0.40102887  0.84719304     0.81900
C975        C  0.93273952  0.53145162  0.84718225     0.80900
Zn976      Zn  0.94373479  0.47172706  0.59337025     1.49700
Zn977      Zn  0.88977331  0.44476505  0.50645397     1.49400
Zn978      Zn  0.86303144  0.39111559  0.59370941     1.49100
Zn979      Zn  0.86302785  0.47164452  0.59372114     1.49500
O980        O  0.88989367  0.44481476  0.57074713    -1.80400
O981        O  0.98343510  0.49158584  0.54566328    -0.71000
O982        O  0.86040870  0.38622079  0.48500133    -0.70800
O983        O  0.89817391  0.38059707  0.63119061    -0.70300
O984        O  0.94829353  0.47403311  0.48465639    -0.71000
O985        O  0.95443245  0.43679134  0.63101212    -0.70600
O986        O  0.84298659  0.35127025  0.54614918    -0.71200
O987        O  0.81755971  0.43673688  0.63171427    -0.70600
O988        O  0.86040716  0.47394835  0.48501477    -0.71300
O989        O  0.81755788  0.38053811  0.63169854    -0.70700
O990        O  0.84297617  0.49145882  0.54616790    -0.71200
O991        O  0.89817845  0.51729532  0.63120893    -0.71100
O992        O  0.95443371  0.51735012  0.63102695    -0.70900
C993        C  0.98137640  0.49056932  0.50449038     0.80900
C994        C  0.84389865  0.35321562  0.50496450     0.81400
C995        C  0.93337726  0.40165018  0.64335566     0.80300
C996        C  0.80349107  0.40160188  0.64408029     0.80700
C997        C  0.84389343  0.49043805  0.50498161     0.81900
C998        C  0.93338128  0.53143868  0.64337390     0.80900
C999        C  0.66718532  0.33345367  0.78776116     0.49200
H1000       H  0.66698681  0.33335529  0.82384636     0.00200
C1001       C  0.66769639  0.33370554  0.70309326     0.49300
H1002       H  0.66789843  0.66713804  0.66700307     0.00200
C1003       C  0.98024008  0.35390135  0.76754984    -0.13500
C1004       C  0.70809097  0.35390478  0.76795213    -0.13200
C1005       C  0.98023776  0.62606015  0.76755217    -0.13600
C1006       C  0.98047525  0.35408868  0.72312807    -0.13600
C1007       C  0.70847217  0.35409272  0.72353260    -0.13200
C1008       C  0.98047566  0.62610436  0.72313169    -0.13500
Zn1009     Zn  0.83337064  0.58323375  0.43804116     1.49700
Zn1010     Zn  0.75141552  0.50121346  0.43726757     1.49400
Zn1011     Zn  0.75140579  0.58331538  0.43725801     1.48900
Zn1012     Zn  0.77913632  0.55614201  0.35370575     1.49500
O1013       O  0.77881905  0.55596941  0.41734472    -1.80400
O1014       O  0.84533272  0.54555041  0.47176415    -0.71000
O1015       O  0.70159661  0.48912128  0.47083902    -0.70800
O1016       O  0.78898871  0.63311552  0.47099039    -0.70300
O1017       O  0.78898644  0.48897666  0.47100694    -0.71000
O1018       O  0.84532973  0.63287242  0.47175867    -0.70600
O1019       O  0.70158524  0.54557950  0.47083061    -0.71200
O1020       O  0.75272112  0.58284497  0.32861851    -0.70600
O1021       O  0.73290162  0.46411240  0.38633667    -0.71300
O1022       O  0.73289076  0.60192270  0.38633466    -0.70700
O1023       O  0.75271726  0.50302696  0.32862197    -0.71200
O1024       O  0.83246868  0.58281550  0.32950596    -0.71100
O1025       O  0.87092756  0.60202023  0.38763162    -0.70900
C1026       C  0.82523390  0.50915239  0.48075788     0.80900
C1027       C  0.68538808  0.50924722  0.48017585     0.81400
C1028       C  0.82523571  0.64917910  0.48074184     0.80300
C1029       C  0.73570850  0.59952960  0.34547435     0.80700
C1030       C  0.73570961  0.46932947  0.34547759     0.81900
C1031       C  0.86601295  0.59957954  0.34673435     0.80900
Zn1032     Zn  0.75114335  0.50132454  0.05086097     1.49700
Zn1033     Zn  0.75113137  0.58294460  0.05084329     1.49400
Zn1034     Zn  0.77803283  0.55560896  0.13506834     1.49100
Zn1035     Zn  0.83296132  0.58303682  0.05147571     1.49500
O1036       O  0.77833930  0.55573999  0.07143258    -1.80400
O1037       O  0.70225414  0.48949830  0.01632896    -0.71000
O1038       O  0.73224554  0.60164167  0.10146076    -0.70800
O1039       O  0.75125391  0.50233805  0.15956312    -0.70300
O1040       O  0.70225014  0.54586936  0.01630902    -0.71000
O1041       O  0.73227194  0.46377996  0.10150478    -0.70600
O1042       O  0.75125394  0.58211056  0.15953291    -0.71200
O1043       O  0.87014742  0.60163587  0.10262745    -0.70600
O1044       O  0.78837917  0.63188687  0.01658231    -0.71300
O1045       O  0.83113974  0.58217402  0.16031184    -0.70700
O1046       O  0.84487244  0.63206601  0.01707306    -0.71200
O1047       O  0.84487638  0.54591217  0.01707766    -0.71100
O1048       O  0.78838263  0.48960381  0.01660390    -0.70900
C1049       C  0.68630361  0.50970690  0.00640367     0.80900
C1050       C  0.73456862  0.59900036  0.14237920     0.81400
C1051       C  0.73458214  0.46875793  0.14242073     0.80300
C1052       C  0.86488110  0.59902654  0.14351661     0.80700
C1053       C  0.82461913  0.64793669  0.00694590     0.81900
C1054       C  0.82462139  0.50978677  0.00695866     0.80900
C1055       C  0.66792707  0.33387548  0.28672398     0.49200
H1056       H  0.66828365  0.33405081  0.32282558     0.00200
C1057       C  0.66703916  0.33344131  0.20206088     0.49300
H1058       H  0.66668279  0.33326755  0.16597807     0.00200
C1059       C  0.68810238  0.64672516  0.26634575    -0.13500
C1060       C  0.96029202  0.64672860  0.26707889    -0.13200
C1061       C  0.68810144  0.37453676  0.26635484    -0.13600
C1062       C  0.68762632  0.64649764  0.22193914    -0.13600
C1063       C  0.95979894  0.64648660  0.22267019    -0.13200
C1064       C  0.68762710  0.37429989  0.22195020    -0.13500
C1065       C  0.70452915  0.40848742  0.19507077    -0.09500
C1066       C  0.71804553  0.43570489  0.17053482    -0.11100
C1067       C  0.92516597  0.62917332  0.19636555    -0.09500
C1068       C  0.89780173  0.61549090  0.17195413    -0.11100
C1069       C  0.71803260  0.61552238  0.17048786    -0.09500
C1070       C  0.70452420  0.62921817  0.19504302    -0.11100
C1071       C  0.92626378  0.62971606  0.29415568    -0.09500
C1072       C  0.89909926  0.61613100  0.31873471    -0.11100
C1073       C  0.71924087  0.43638631  0.31716824    -0.09500
C1074       C  0.70548910  0.40901840  0.29281663    -0.11100
C1075       C  0.70549511  0.62963010  0.29280516    -0.09500
C1076       C  0.71924492  0.61601313  0.31716306    -0.11100
C1077       C  0.94968150  0.38538162  0.67236602    -0.09500
C1078       C  0.96337420  0.37150979  0.69654316    -0.11100
C1079       C  0.77095516  0.38533005  0.67323015    -0.09500
C1080       C  0.74326681  0.37148628  0.69728808    -0.11100
C1081       C  0.94968928  0.56401072  0.67238317    -0.09500
C1082       C  0.96338037  0.59157936  0.69655303    -0.11100
C1083       C  0.96294300  0.37098610  0.79426513    -0.09500
C1084       C  0.94925891  0.38454259  0.81884583    -0.11100
C1085       C  0.76933888  0.38453714  0.81969438    -0.09500
C1086       C  0.74221144  0.37096949  0.79499960    -0.11100
C1087       C  0.96293032  0.59167886  0.79426450    -0.09500
C1088       C  0.94923618  0.56443323  0.81883578    -0.11100
Zn1089     Zn  0.91673701  0.83249536  0.93901077     1.49700
Zn1090     Zn  0.91674840  0.75066404  0.93901508     1.49400
Zn1091     Zn  0.83502854  0.75072987  0.93945152     1.49100
Zn1092     Zn  0.88933707  0.77786395  0.85515718     1.49500
O1093       O  0.88945894  0.77793560  0.91879662    -1.80400
O1094       O  0.96573534  0.84427759  0.97328812    -0.71000
O1095       O  0.87971802  0.70177362  0.97362194    -0.70800
O1096       O  0.82334535  0.78794495  0.97390664    -0.70300
O1097       O  0.96573912  0.78788650  0.97330282    -0.71000
O1098       O  0.87971428  0.84436902  0.97362321    -0.70600
O1099       O  0.82334902  0.70183391  0.97389502    -0.71200
O1100       O  0.83598853  0.75118484  0.83075773    -0.70600
O1101       O  0.93539034  0.73185837  0.88810261    -0.71300
O1102       O  0.79738828  0.73191061  0.88879970    -0.70700
O1103       O  0.91588742  0.75117125  0.83026952    -0.71200
O1104       O  0.91587725  0.83110158  0.83026161    -0.71100
O1105       O  0.93536338  0.86992349  0.88809027    -0.70900
C1106       C  0.98169936  0.82406532  0.98316702     0.80900
C1107       C  0.84357661  0.68586275  0.98368366     0.81400
C1108       C  0.84357426  0.82414365  0.98369312     0.80300
C1109       C  0.80238343  0.73439474  0.84787568     0.80700
C1110       C  0.93276099  0.73436218  0.84719306     0.81900
C1111       C  0.93273948  0.86478496  0.84718227     0.80900
Zn1112     Zn  0.94373472  0.80506033  0.59337024     1.49700
Zn1113     Zn  0.88977328  0.77809841  0.50645396     1.49400
Zn1114     Zn  0.86303147  0.72444897  0.59370939     1.49100
Zn1115     Zn  0.86302778  0.80497789  0.59372112     1.49500
O1116       O  0.88989363  0.77814809  0.57074711    -1.80400
O1117       O  0.98343506  0.82491903  0.54566330    -0.71000
O1118       O  0.86040875  0.71955410  0.48500140    -0.70800
O1119       O  0.89817388  0.71393041  0.63119056    -0.70300
O1120       O  0.94829357  0.80736656  0.48465644    -0.71000
O1121       O  0.95443236  0.77012452  0.63101215    -0.70600
O1122       O  0.84298655  0.68460360  0.54614921    -0.71200
O1123       O  0.81755962  0.77007026  0.63171427    -0.70600
O1124       O  0.86040715  0.80728167  0.48501481    -0.71300
O1125       O  0.81755800  0.71387162  0.63169862    -0.70700
O1126       O  0.84297614  0.82479222  0.54616795    -0.71200
O1127       O  0.89817836  0.85062865  0.63120898    -0.71100
O1128       O  0.95443352  0.85068330  0.63102691    -0.70900
C1129       C  0.98137642  0.82390266  0.50449042     0.80900
C1130       C  0.84389869  0.68654894  0.50496454     0.81400
C1131       C  0.93337719  0.73498342  0.64335562     0.80300
C1132       C  0.80349106  0.73493528  0.64408028     0.80700
C1133       C  0.84389341  0.82377139  0.50498164     0.81900
C1134       C  0.93338121  0.86477199  0.64337388     0.80900
C1135       C  0.66718531  0.66678697  0.78776122     0.49200
H1136       H  0.66698689  0.66668870  0.82384623     0.00200
C1137       C  0.66769640  0.66703891  0.70309321     0.49300
H1138       H  0.66789841  0.00047146  0.66700509     0.00200
C1139       C  0.98024008  0.68723470  0.76754981    -0.13500
C1140       C  0.70809096  0.68723815  0.76795211    -0.13200
C1141       C  0.98023783  0.95939339  0.76755202    -0.13600
C1142       C  0.98047528  0.68742205  0.72312803    -0.13600
C1143       C  0.70847217  0.68742606  0.72353258    -0.13200
C1144       C  0.98047569  0.95943763  0.72313174    -0.13500
Zn1145     Zn  0.83337075  0.91656713  0.43804115     1.49700
Zn1146     Zn  0.75141561  0.83454688  0.43726759     1.49400
Zn1147     Zn  0.75140590  0.91664875  0.43725800     1.48900
Zn1148     Zn  0.77913633  0.88947539  0.35370575     1.49500
O1149       O  0.77881915  0.88930281  0.41734472    -1.80400
O1150       O  0.84533285  0.87888384  0.47176411    -0.71000
O1151       O  0.70159673  0.82245467  0.47083905    -0.70800
O1152       O  0.78898886  0.96644886  0.47099035    -0.70300
O1153       O  0.78898636  0.82230991  0.47100694    -0.71000
O1154       O  0.84532990  0.96620581  0.47175869    -0.70600
O1155       O  0.70158527  0.87891290  0.47083060    -0.71200
O1156       O  0.75272101  0.91617822  0.32861849    -0.70600
O1157       O  0.73290169  0.79744584  0.38633666    -0.71300
O1158       O  0.73289086  0.93525601  0.38633464    -0.70700
O1159       O  0.75271726  0.83636034  0.32862195    -0.71200
O1160       O  0.83246866  0.91614893  0.32950595    -0.71100
O1161       O  0.87092761  0.93535364  0.38763158    -0.70900
C1162       C  0.82523388  0.84248576  0.48075789     0.80900
C1163       C  0.68538813  0.84258060  0.48017581     0.81400
C1164       C  0.82523582  0.98251245  0.48074188     0.80300
C1165       C  0.73570848  0.93286290  0.34547434     0.80700
C1166       C  0.73570959  0.80266286  0.34547758     0.81900
C1167       C  0.86601295  0.93291289  0.34673432     0.80900
Zn1168     Zn  0.75114333  0.83465791  0.05086094     1.49700
Zn1169     Zn  0.75113146  0.91627800  0.05084324     1.49400
Zn1170     Zn  0.77803283  0.88894231  0.13506834     1.49100
Zn1171     Zn  0.83296133  0.91637009  0.05147574     1.49500
O1172       O  0.77833935  0.88907334  0.07143258    -1.80400
O1173       O  0.70225413  0.82283172  0.01632900    -0.71000
O1174       O  0.73224563  0.93497514  0.10146074    -0.70800
O1175       O  0.75125389  0.83567143  0.15956314    -0.70300
O1176       O  0.70225014  0.87920284  0.01630904    -0.71000
O1177       O  0.73227184  0.79711324  0.10150476    -0.70600
O1178       O  0.75125386  0.91544381  0.15953294    -0.71200
O1179       O  0.87014739  0.93496919  0.10262748    -0.70600
O1180       O  0.78837917  0.96522023  0.01658228    -0.71300
O1181       O  0.83113972  0.91550746  0.16031185    -0.70700
O1182       O  0.84487242  0.96539929  0.01707303    -0.71200
O1183       O  0.84487637  0.87924551  0.01707770    -0.71100
O1184       O  0.78838260  0.82293715  0.01660386    -0.70900
C1185       C  0.68630362  0.84304024  0.00640365     0.80900
C1186       C  0.73456871  0.93233380  0.14237919     0.81400
C1187       C  0.73458218  0.80209130  0.14242072     0.80300
C1188       C  0.86488110  0.93235989  0.14351665     0.80700
C1189       C  0.82461923  0.98126999  0.00694584     0.81900
C1190       C  0.82462149  0.84312024  0.00695865     0.80900
C1191       C  0.66792706  0.66720883  0.28672398     0.49200
H1192       H  0.66828377  0.66738423  0.32282560     0.00200
C1193       C  0.66703907  0.66677458  0.20206089     0.49300
H1194       H  0.66668290  0.66660101  0.16597802     0.00200
C1195       C  0.68810239  0.98005851  0.26634578    -0.13500
C1196       C  0.96029203  0.98006199  0.26707890    -0.13200
C1197       C  0.68810147  0.70787009  0.26635489    -0.13600
C1198       C  0.68762632  0.97983099  0.22193917    -0.13600
C1199       C  0.95979894  0.97982005  0.22267021    -0.13200
C1200       C  0.68762705  0.70763318  0.22195023    -0.13500
C1201       C  0.70452915  0.74182079  0.19507077    -0.09500
C1202       C  0.71804550  0.76903826  0.17053477    -0.11100
C1203       C  0.92516603  0.96250675  0.19636561    -0.09500
C1204       C  0.89780174  0.94882433  0.17195421    -0.11100
C1205       C  0.71803263  0.94885576  0.17048779    -0.09500
C1206       C  0.70452429  0.96255161  0.19504298    -0.11100
C1207       C  0.92626382  0.96304949  0.29415570    -0.09500
C1208       C  0.89909925  0.94946445  0.31873464    -0.11100
C1209       C  0.71924093  0.76971973  0.31716823    -0.09500
C1210       C  0.70548914  0.74235179  0.29281664    -0.11100
C1211       C  0.70549507  0.96296339  0.29280515    -0.09500
C1212       C  0.71924481  0.94934638  0.31716307    -0.11100
C1213       C  0.94968148  0.71871496  0.67236592    -0.09500
C1214       C  0.96337411  0.70484307  0.69654306    -0.11100
C1215       C  0.77095521  0.71866343  0.67323016    -0.09500
C1216       C  0.74326684  0.70481963  0.69728806    -0.11100
C1217       C  0.94968927  0.89734406  0.67238320    -0.09500
C1218       C  0.96338048  0.92491273  0.69655304    -0.11100
C1219       C  0.96294292  0.70431942  0.79426507    -0.09500
C1220       C  0.94925875  0.71787576  0.81884587    -0.11100
C1221       C  0.76933893  0.71787049  0.81969431    -0.09500
C1222       C  0.74221144  0.70430279  0.79499960    -0.11100
C1223       C  0.96293039  0.92501221  0.79426460    -0.09500
C1224       C  0.94923617  0.89776653  0.81883583    -0.11100
loop_ 
_geom_bond_atom_site_label_1 
_geom_bond_atom_site_label_2 
_geom_bond_distance 
_geom_bond_site_symmetry_2 
_ccdc_geom_bond_type 
Zn1           O5   1.968       .  S
Zn1           O6   2.044       .  S
Zn1          O10   2.045       .  S
Zn1          O17   2.025       .  S
Zn2           O5   1.968       .  S
Zn2           O7   2.045       .  S
Zn2           O9   2.044       .  S
Zn2          O13   2.025       .  S
Zn3           O5   1.968       .  S
Zn3           O8   2.045       .  S
Zn3          O11   2.045       .  S
Zn3          O14   2.023       .  S
Zn4           O5   1.960       .  S
Zn4          O12   1.974       .  S
Zn4          O15   1.977       .  S
Zn4          O16   1.977       .  S
O6           C18   1.278       .  A
O7           C19   1.278       .  A
O8           C20   1.278       .  A
O9           C18   1.278       .  A
O10          C20   1.278       .  A
O11          C19   1.278       .  A
O12          C21   1.265       .  A
O13          C22   1.272       .  A
O14          C21   1.272       .  A
O15          C22   1.265       .  A
O16          C23   1.265       .  A
O17          C23   1.272       .  A
C18         C505   1.482   1_556  S
C19         C373   1.483   1_546  S
C20         C102   1.483   1_556  S
C21         C133   1.425       .  S
C22         C132   1.427       .  S
C23         C136   1.427       .  S
Zn24         O28   1.970       .  S
Zn24         O29   2.001       .  S
Zn24         O33   2.003       .  S
Zn24         O40   2.003       .  S
Zn25         O28   1.980       .  S
Zn25         O30   2.110       .  S
Zn25         O32   2.112       .  S
Zn25         O36   2.110       .  S
Zn26         O28   1.969       .  S
Zn26         O31   2.003       .  S
Zn26         O34   2.001       .  S
Zn26         O37   2.005       .  S
Zn27         O28   1.969       .  S
Zn27         O35   2.005       .  S
Zn27         O38   2.001       .  S
Zn27         O39   2.003       .  S
O29          C41   1.270       .  A
O30          C42   1.286       .  A
O31          C43   1.269       .  A
O32          C41   1.286       .  A
O33          C43   1.269       .  A
O34          C42   1.270       .  A
O35          C44   1.269       .  A
O36          C45   1.286       .  A
O37          C44   1.269       .  A
O38          C45   1.270       .  A
O39          C46   1.269       .  A
O40          C46   1.269       .  A
C41         C483   1.481       .  S
C42         C348   1.481   1_545  S
C43         C125   1.429       .  S
C44         C127   1.430       .  S
C45          C74   1.481       .  S
C46         C129   1.429       .  S
C47          H48   1.111       .  S
C47          C52   1.527       .  S
C47        C1141   1.527   1_445  S
C47         C867   1.527   1_455  S
C49         H322   1.111       .  S
C49          C55   1.531       .  S
C49         C870   1.531   1_455  S
C49        C1144   1.531   1_445  S
H50         C185   1.111       .  S
C51         C455   1.527       .  S
C51          C54   1.368       .  D
C51         C131   1.436       .  S
C52          C55   1.368       .  D
C52         C134   1.434       .  S
C53         C591   1.527       .  S
C53          C56   1.368       .  D
C53         C135   1.436       .  S
C54         C457   1.531       .  S
C54         C126   1.437       .  S
C55         C128   1.439       .  S
C56         C593   1.531       .  S
C56         C130   1.437       .  S
Zn57         O61   1.972       .  S
Zn57         O62   2.055       .  S
Zn57         O66   2.055       .  S
Zn57         O73   2.015       .  S
Zn58         O61   1.972       .  S
Zn58         O63   2.057       .  S
Zn58         O65   2.058       .  S
Zn58         O69   2.018       .  S
Zn59         O61   1.972       .  S
Zn59         O64   2.058       .  S
Zn59         O67   2.057       .  S
Zn59         O70   2.018       .  S
Zn60         O61   1.960       .  S
Zn60         O68   1.975       .  S
Zn60         O71   1.975       .  S
Zn60         O72   1.971       .  S
O62          C74   1.278       .  A
O63          C75   1.279       .  A
O64          C76   1.279       .  A
O65          C74   1.279       .  A
O66          C76   1.278       .  A
O67          C75   1.279       .  A
O68          C77   1.265       .  A
O69          C78   1.271       .  A
O70          C77   1.271       .  A
O71          C78   1.265       .  A
O72          C79   1.264       .  A
O73          C79   1.270       .  A
C75         C857   1.481   1_455  S
C76         C178   1.481       .  S
C77         C124   1.425       .  S
C78         C121   1.425       .  S
C79         C120   1.423       .  S
Zn80         O84   1.967       .  S
Zn80         O85   2.044       .  S
Zn80         O89   2.021       .  S
Zn80         O96   2.043       .  S
Zn81         O84   1.967       .  S
Zn81         O86   2.021       .  S
Zn81         O88   2.044       .  S
Zn81         O92   2.043       .  S
Zn82         O84   1.960       .  S
Zn82         O87   1.973       .  S
Zn82         O90   1.973       .  S
Zn82         O93   1.976       .  S
Zn83         O84   1.967       .  S
Zn83         O91   2.025       .  S
Zn83         O94   2.046       .  S
Zn83         O95   2.046       .  S
O85          C97   1.278       .  A
O86          C98   1.271       .  A
O87          C99   1.265       .  A
O88          C97   1.278       .  A
O89          C99   1.271       .  A
O90          C98   1.265       .  A
O91         C100   1.272       .  A
O92         C101   1.278       .  A
O93         C100   1.265       .  A
O94         C101   1.278       .  A
O95         C102   1.278       .  A
O96         C102   1.278       .  A
C97         C834   1.482   1_454  S
C98         C117   1.425       .  S
C99         C114   1.425       .  S
C100        C116   1.427       .  S
C101        C155   1.483   1_554  S
C103        H104   1.112       .  S
C103        C109   1.527       .  S
C103       C1196   1.527   1_445  S
C103        C379   1.527   1_545  S
C105        H106   1.111   1_545  S
C105        C112   1.527       .  S
C105       C1199   1.526   1_445  S
C105        C382   1.527   1_545  S
C107        C239   1.527       .  S
C107        C110   1.367       .  D
C107        C123   1.434       .  S
C108        C647   1.527       .  S
C108        C111   1.368       .  D
C108        C119   1.432       .  S
C109        C112   1.367       .  D
C109        C122   1.434       .  S
C110        C241   1.527       .  S
C110        C118   1.433       .  S
C111        C649   1.526       .  S
C111        C115   1.435       .  S
C112        C113   1.433       .  S
C113        C114   1.199       .  T
C115        C116   1.201       .  T
C117        C118   1.199       .  T
C119        C120   1.199       .  T
C121        C122   1.200       .  T
C123        C124   1.200       .  T
C125        C126   1.202       .  T
C127        C128   1.203       .  T
C129        C130   1.202       .  T
C131        C132   1.201       .  T
C133        C134   1.200       .  T
C135        C136   1.201       .  T
Zn137       O141   1.968       .  S
Zn137       O142   2.044       .  S
Zn137       O146   2.045       .  S
Zn137       O153   2.025       .  S
Zn138       O141   1.968       .  S
Zn138       O143   2.045       .  S
Zn138       O145   2.044       .  S
Zn138       O149   2.025       .  S
Zn139       O141   1.968       .  S
Zn139       O144   2.045       .  S
Zn139       O147   2.045       .  S
Zn139       O150   2.023       .  S
Zn140       O141   1.960       .  S
Zn140       O148   1.974       .  S
Zn140       O151   1.977       .  S
Zn140       O152   1.977       .  S
O142        C154   1.278       .  A
O143        C155   1.278       .  A
O144        C156   1.278       .  A
O145        C154   1.278       .  A
O146        C156   1.278       .  A
O147        C155   1.278       .  A
O148        C157   1.265       .  A
O149        C158   1.272       .  A
O150        C157   1.272       .  A
O151        C158   1.265       .  A
O152        C159   1.265       .  A
O153        C159   1.272       .  A
C154        C641   1.482   1_556  S
C156        C238   1.483   1_556  S
C157        C269   1.425       .  S
C158        C268   1.427       .  S
C159        C272   1.427       .  S
Zn160       O164   1.970       .  S
Zn160       O165   2.001       .  S
Zn160       O169   2.003       .  S
Zn160       O176   2.003       .  S
Zn161       O164   1.980       .  S
Zn161       O166   2.110       .  S
Zn161       O168   2.112       .  S
Zn161       O172   2.110       .  S
Zn162       O164   1.969       .  S
Zn162       O167   2.003       .  S
Zn162       O170   2.001       .  S
Zn162       O173   2.005       .  S
Zn163       O164   1.969       .  S
Zn163       O171   2.005       .  S
Zn163       O174   2.001       .  S
Zn163       O175   2.003       .  S
O165        C177   1.270       .  A
O166        C178   1.286       .  A
O167        C179   1.269       .  A
O168        C177   1.286       .  A
O169        C179   1.269       .  A
O170        C178   1.270       .  A
O171        C180   1.269       .  A
O172        C181   1.286       .  A
O173        C180   1.269       .  A
O174        C181   1.270       .  A
O175        C182   1.269       .  A
O176        C182   1.269       .  A
C177        C619   1.481       .  S
C179        C261   1.429       .  S
C180        C263   1.430       .  S
C181        C210   1.481       .  S
C182        C265   1.429       .  S
C183        H184   1.111       .  S
C183        C869   1.527   1_455  S
C183        C188   1.527       .  S
C183       C1003   1.527   1_455  S
C185        C191   1.531       .  S
C185       C1006   1.531   1_455  S
C185        C872   1.531   1_455  S
H186        C321   1.111       .  S
C187        C591   1.527       .  S
C187        C190   1.368       .  D
C187        C267   1.436       .  S
C188        C191   1.368       .  D
C188        C270   1.434       .  S
C189        C727   1.527       .  S
C189        C192   1.368       .  D
C189        C271   1.436       .  S
C190        C593   1.531       .  S
C190        C262   1.437       .  S
C191        C264   1.439       .  S
C192        C729   1.531       .  S
C192        C266   1.437       .  S
Zn193       O197   1.972       .  S
Zn193       O198   2.055       .  S
Zn193       O202   2.055       .  S
Zn193       O209   2.015       .  S
Zn194       O197   1.972       .  S
Zn194       O199   2.057       .  S
Zn194       O201   2.058       .  S
Zn194       O205   2.018       .  S
Zn195       O197   1.972       .  S
Zn195       O200   2.058       .  S
Zn195       O203   2.057       .  S
Zn195       O206   2.018       .  S
Zn196       O197   1.960       .  S
Zn196       O204   1.975       .  S
Zn196       O207   1.975       .  S
Zn196       O208   1.971       .  S
O198        C210   1.278       .  A
O199        C211   1.279       .  A
O200        C212   1.279       .  A
O201        C210   1.279       .  A
O202        C212   1.278       .  A
O203        C211   1.279       .  A
O204        C213   1.265       .  A
O205        C214   1.271       .  A
O206        C213   1.271       .  A
O207        C214   1.265       .  A
O208        C215   1.264       .  A
O209        C215   1.270       .  A
C211        C993   1.481   1_455  S
C212        C314   1.481       .  S
C213        C260   1.425       .  S
C214        C257   1.425       .  S
C215        C256   1.423       .  S
Zn216       O220   1.967       .  S
Zn216       O221   2.044       .  S
Zn216       O225   2.021       .  S
Zn216       O232   2.043       .  S
Zn217       O220   1.967       .  S
Zn217       O222   2.021       .  S
Zn217       O224   2.044       .  S
Zn217       O228   2.043       .  S
Zn218       O220   1.960       .  S
Zn218       O223   1.973       .  S
Zn218       O226   1.973       .  S
Zn218       O229   1.976       .  S
Zn219       O220   1.967       .  S
Zn219       O227   2.025       .  S
Zn219       O230   2.046       .  S
Zn219       O231   2.046       .  S
O221        C233   1.278       .  A
O222        C234   1.271       .  A
O223        C235   1.265       .  A
O224        C233   1.278       .  A
O225        C235   1.271       .  A
O226        C234   1.265       .  A
O227        C236   1.272       .  A
O228        C237   1.278       .  A
O229        C236   1.265       .  A
O230        C237   1.278       .  A
O231        C238   1.278       .  A
O232        C238   1.278       .  A
C233        C970   1.482   1_454  S
C234        C253   1.425       .  S
C235        C250   1.425       .  S
C236        C252   1.427       .  S
C237        C291   1.483   1_554  S
C239        H240   1.112       .  S
C239        C245   1.527       .  S
C239        C924   1.527   1_455  S
C241        H242   1.111       .  S
C241        C927   1.526   1_455  S
C241        C248   1.527       .  S
C243        C375   1.527       .  S
C243        C246   1.367       .  D
C243        C259   1.434       .  S
C244        C783   1.527       .  S
C244        C247   1.368       .  D
C244        C255   1.432       .  S
C245        C248   1.367       .  D
C245        C258   1.434       .  S
C246        C377   1.527       .  S
C246        C254   1.433       .  S
C247        C785   1.526       .  S
C247        C251   1.435       .  S
C248        C249   1.433       .  S
C249        C250   1.199       .  T
C251        C252   1.201       .  T
C253        C254   1.199       .  T
C255        C256   1.199       .  T
C257        C258   1.200       .  T
C259        C260   1.200       .  T
C261        C262   1.202       .  T
C263        C264   1.203       .  T
C265        C266   1.202       .  T
C267        C268   1.201       .  T
C269        C270   1.200       .  T
C271        C272   1.201       .  T
Zn273       O277   1.968       .  S
Zn273       O278   2.044       .  S
Zn273       O282   2.045       .  S
Zn273       O289   2.025       .  S
Zn274       O277   1.968       .  S
Zn274       O279   2.045       .  S
Zn274       O281   2.044       .  S
Zn274       O285   2.025       .  S
Zn275       O277   1.968       .  S
Zn275       O280   2.045       .  S
Zn275       O283   2.045       .  S
Zn275       O286   2.023       .  S
Zn276       O277   1.960       .  S
Zn276       O284   1.974       .  S
Zn276       O287   1.977       .  S
Zn276       O288   1.977       .  S
O278        C290   1.278       .  A
O279        C291   1.278       .  A
O280        C292   1.278       .  A
O281        C290   1.278       .  A
O282        C292   1.278       .  A
O283        C291   1.278       .  A
O284        C293   1.265       .  A
O285        C294   1.272       .  A
O286        C293   1.272       .  A
O287        C294   1.265       .  A
O288        C295   1.265       .  A
O289        C295   1.272       .  A
C290        C777   1.482   1_556  S
C292        C374   1.483   1_556  S
C293        C405   1.425       .  S
C294        C404   1.427       .  S
C295        C408   1.427       .  S
Zn296       O300   1.970       .  S
Zn296       O301   2.001       .  S
Zn296       O305   2.003       .  S
Zn296       O312   2.003       .  S
Zn297       O300   1.980       .  S
Zn297       O302   2.110       .  S
Zn297       O304   2.112       .  S
Zn297       O308   2.110       .  S
Zn298       O300   1.969       .  S
Zn298       O303   2.003       .  S
Zn298       O306   2.001       .  S
Zn298       O309   2.005       .  S
Zn299       O300   1.969       .  S
Zn299       O307   2.005       .  S
Zn299       O310   2.001       .  S
Zn299       O311   2.003       .  S
O301        C313   1.270       .  A
O302        C314   1.286       .  A
O303        C315   1.269       .  A
O304        C313   1.286       .  A
O305        C315   1.269       .  A
O306        C314   1.270       .  A
O307        C316   1.269       .  A
O308        C317   1.286       .  A
O309        C316   1.269       .  A
O310        C317   1.270       .  A
O311        C318   1.269       .  A
O312        C318   1.269       .  A
C313        C755   1.481       .  S
C315        C397   1.429       .  S
C316        C399   1.430       .  S
C317        C346   1.481       .  S
C318        C401   1.429       .  S
C319        H320   1.111       .  S
C319       C1005   1.527   1_455  S
C319        C324   1.527       .  S
C319       C1139   1.527   1_455  S
C321        C327   1.531       .  S
C321       C1142   1.531   1_455  S
C321       C1008   1.531   1_455  S
C323        C727   1.527       .  S
C323        C326   1.368       .  D
C323        C403   1.436       .  S
C324        C327   1.368       .  D
C324        C406   1.434       .  S
C325        C455   1.527   1_565  S
C325        C328   1.368       .  D
C325        C407   1.436       .  S
C326        C729   1.531       .  S
C326        C398   1.437       .  S
C327        C400   1.439       .  S
C328        C457   1.531   1_565  S
C328        C402   1.437       .  S
Zn329       O333   1.972       .  S
Zn329       O334   2.055       .  S
Zn329       O338   2.055       .  S
Zn329       O345   2.015       .  S
Zn330       O333   1.972       .  S
Zn330       O335   2.057       .  S
Zn330       O337   2.058       .  S
Zn330       O341   2.018       .  S
Zn331       O333   1.972       .  S
Zn331       O336   2.058       .  S
Zn331       O339   2.057       .  S
Zn331       O342   2.018       .  S
Zn332       O333   1.960       .  S
Zn332       O340   1.975       .  S
Zn332       O343   1.975       .  S
Zn332       O344   1.971       .  S
O334        C346   1.278       .  A
O335        C347   1.279       .  A
O336        C348   1.279       .  A
O337        C346   1.279       .  A
O338        C348   1.278       .  A
O339        C347   1.279       .  A
O340        C349   1.265       .  A
O341        C350   1.271       .  A
O342        C349   1.271       .  A
O343        C350   1.265       .  A
O344        C351   1.264       .  A
O345        C351   1.270       .  A
C347       C1129   1.481   1_455  S
C349        C396   1.425       .  S
C350        C393   1.425       .  S
C351        C392   1.423       .  S
Zn352       O356   1.967       .  S
Zn352       O357   2.044       .  S
Zn352       O361   2.021       .  S
Zn352       O368   2.043       .  S
Zn353       O356   1.967       .  S
Zn353       O358   2.021       .  S
Zn353       O360   2.044       .  S
Zn353       O364   2.043       .  S
Zn354       O356   1.960       .  S
Zn354       O359   1.973       .  S
Zn354       O362   1.973       .  S
Zn354       O365   1.976       .  S
Zn355       O356   1.967       .  S
Zn355       O363   2.025       .  S
Zn355       O366   2.046       .  S
Zn355       O367   2.046       .  S
O357        C369   1.278       .  A
O358        C370   1.271       .  A
O359        C371   1.265       .  A
O360        C369   1.278       .  A
O361        C371   1.271       .  A
O362        C370   1.265       .  A
O363        C372   1.272       .  A
O364        C373   1.278       .  A
O365        C372   1.265       .  A
O366        C373   1.278       .  A
O367        C374   1.278       .  A
O368        C374   1.278       .  A
C369       C1106   1.482   1_454  S
C370        C389   1.425       .  S
C371        C386   1.425       .  S
C372        C388   1.427       .  S
C375        H376   1.112       .  S
C375        C381   1.527       .  S
C375       C1060   1.527   1_455  S
C377        H378   1.111       .  S
C377       C1063   1.526   1_455  S
C377        C384   1.527       .  S
C379        C382   1.367       .  D
C379        C395   1.434       .  S
C380        C511   1.527   1_565  S
C380        C383   1.368       .  D
C380        C391   1.432       .  S
C381        C384   1.367       .  D
C381        C394   1.434       .  S
C382        C390   1.433       .  S
C383        C513   1.526   1_565  S
C383        C387   1.435       .  S
C384        C385   1.433       .  S
C385        C386   1.199       .  T
C387        C388   1.201       .  T
C389        C390   1.199       .  T
C391        C392   1.199       .  T
C393        C394   1.200       .  T
C395        C396   1.200       .  T
C397        C398   1.202       .  T
C399        C400   1.203       .  T
C401        C402   1.202       .  T
C403        C404   1.201       .  T
C405        C406   1.200       .  T
C407        C408   1.201       .  T
Zn409       O413   1.968       .  S
Zn409       O414   2.044       .  S
Zn409       O418   2.045       .  S
Zn409       O425   2.025       .  S
Zn410       O413   1.968       .  S
Zn410       O415   2.045       .  S
Zn410       O417   2.044       .  S
Zn410       O421   2.025       .  S
Zn411       O413   1.968       .  S
Zn411       O416   2.045       .  S
Zn411       O419   2.045       .  S
Zn411       O422   2.023       .  S
Zn412       O413   1.960       .  S
Zn412       O420   1.974       .  S
Zn412       O423   1.977       .  S
Zn412       O424   1.977       .  S
O414        C426   1.278       .  A
O415        C427   1.278       .  A
O416        C428   1.278       .  A
O417        C426   1.278       .  A
O418        C428   1.278       .  A
O419        C427   1.278       .  A
O420        C429   1.265       .  A
O421        C430   1.272       .  A
O422        C429   1.272       .  A
O423        C430   1.265       .  A
O424        C431   1.265       .  A
O425        C431   1.272       .  A
C426        C913   1.482   1_556  S
C427        C781   1.483   1_546  S
C428        C510   1.483   1_556  S
C429        C541   1.425       .  S
C430        C540   1.427       .  S
C431        C544   1.427       .  S
Zn432       O436   1.970       .  S
Zn432       O437   2.001       .  S
Zn432       O441   2.003       .  S
Zn432       O448   2.003       .  S
Zn433       O436   1.980       .  S
Zn433       O438   2.110       .  S
Zn433       O440   2.112       .  S
Zn433       O444   2.110       .  S
Zn434       O436   1.969       .  S
Zn434       O439   2.003       .  S
Zn434       O442   2.001       .  S
Zn434       O445   2.005       .  S
Zn435       O436   1.969       .  S
Zn435       O443   2.005       .  S
Zn435       O446   2.001       .  S
Zn435       O447   2.003       .  S
O437        C449   1.270       .  A
O438        C450   1.286       .  A
O439        C451   1.269       .  A
O440        C449   1.286       .  A
O441        C451   1.269       .  A
O442        C450   1.270       .  A
O443        C452   1.269       .  A
O444        C453   1.286       .  A
O445        C452   1.269       .  A
O446        C453   1.270       .  A
O447        C454   1.269       .  A
O448        C454   1.269       .  A
C449        C891   1.481       .  S
C450        C756   1.481   1_545  S
C451        C533   1.429       .  S
C452        C535   1.430       .  S
C453        C482   1.481       .  S
C454        C537   1.429       .  S
C455        H456   1.111       .  S
C455        C460   1.527       .  S
C457        H730   1.111       .  S
C457        C463   1.531       .  S
H458        C593   1.111       .  S
C459        C863   1.527       .  S
C459        C462   1.368       .  D
C459        C539   1.436       .  S
C460        C463   1.368       .  D
C460        C542   1.434       .  S
C461        C999   1.527       .  S
C461        C464   1.368       .  D
C461        C543   1.436       .  S
C462        C865   1.531       .  S
C462        C534   1.437       .  S
C463        C536   1.439       .  S
C464       C1001   1.531       .  S
C464        C538   1.437       .  S
Zn465       O469   1.972       .  S
Zn465       O470   2.055       .  S
Zn465       O474   2.055       .  S
Zn465       O481   2.015       .  S
Zn466       O469   1.972       .  S
Zn466       O471   2.057       .  S
Zn466       O473   2.058       .  S
Zn466       O477   2.018       .  S
Zn467       O469   1.972       .  S
Zn467       O472   2.058       .  S
Zn467       O475   2.057       .  S
Zn467       O478   2.018       .  S
Zn468       O469   1.960       .  S
Zn468       O476   1.975       .  S
Zn468       O479   1.975       .  S
Zn468       O480   1.971       .  S
O470        C482   1.278       .  A
O471        C483   1.279       .  A
O472        C484   1.279       .  A
O473        C482   1.279       .  A
O474        C484   1.278       .  A
O475        C483   1.279       .  A
O476        C485   1.265       .  A
O477        C486   1.271       .  A
O478        C485   1.271       .  A
O479        C486   1.265       .  A
O480        C487   1.264       .  A
O481        C487   1.270       .  A
C484        C586   1.481       .  S
C485        C532   1.425       .  S
C486        C529   1.425       .  S
C487        C528   1.423       .  S
Zn488       O492   1.967       .  S
Zn488       O493   2.044       .  S
Zn488       O497   2.021       .  S
Zn488       O504   2.043       .  S
Zn489       O492   1.967       .  S
Zn489       O494   2.021       .  S
Zn489       O496   2.044       .  S
Zn489       O500   2.043       .  S
Zn490       O492   1.960       .  S
Zn490       O495   1.973       .  S
Zn490       O498   1.973       .  S
Zn490       O501   1.976       .  S
Zn491       O492   1.967       .  S
Zn491       O499   2.025       .  S
Zn491       O502   2.046       .  S
Zn491       O503   2.046       .  S
O493        C505   1.278       .  A
O494        C506   1.271       .  A
O495        C507   1.265       .  A
O496        C505   1.278       .  A
O497        C507   1.271       .  A
O498        C506   1.265       .  A
O499        C508   1.272       .  A
O500        C509   1.278       .  A
O501        C508   1.265       .  A
O502        C509   1.278       .  A
O503        C510   1.278       .  A
O504        C510   1.278       .  A
C506        C525   1.425       .  S
C507        C522   1.425       .  S
C508        C524   1.427       .  S
C509        C563   1.483   1_554  S
C511        H512   1.112       .  S
C511        C517   1.527       .  S
C511        C787   1.527   1_545  S
C513        H514   1.111   1_545  S
C513        C790   1.527   1_545  S
C513        C520   1.527       .  S
C515        C647   1.527       .  S
C515        C518   1.367       .  D
C515        C531   1.434       .  S
C516       C1055   1.527       .  S
C516        C519   1.368       .  D
C516        C527   1.432       .  S
C517        C520   1.367       .  D
C517        C530   1.434       .  S
C518        C649   1.527       .  S
C518        C526   1.433       .  S
C519       C1057   1.526       .  S
C519        C523   1.435       .  S
C520        C521   1.433       .  S
C521        C522   1.199       .  T
C523        C524   1.201       .  T
C525        C526   1.199       .  T
C527        C528   1.199       .  T
C529        C530   1.200       .  T
C531        C532   1.200       .  T
C533        C534   1.202       .  T
C535        C536   1.203       .  T
C537        C538   1.202       .  T
C539        C540   1.201       .  T
C541        C542   1.200       .  T
C543        C544   1.201       .  T
Zn545       O549   1.968       .  S
Zn545       O550   2.044       .  S
Zn545       O554   2.045       .  S
Zn545       O561   2.025       .  S
Zn546       O549   1.968       .  S
Zn546       O551   2.045       .  S
Zn546       O553   2.044       .  S
Zn546       O557   2.025       .  S
Zn547       O549   1.968       .  S
Zn547       O552   2.045       .  S
Zn547       O555   2.045       .  S
Zn547       O558   2.023       .  S
Zn548       O549   1.960       .  S
Zn548       O556   1.974       .  S
Zn548       O559   1.977       .  S
Zn548       O560   1.977       .  S
O550        C562   1.278       .  A
O551        C563   1.278       .  A
O552        C564   1.278       .  A
O553        C562   1.278       .  A
O554        C564   1.278       .  A
O555        C563   1.278       .  A
O556        C565   1.265       .  A
O557        C566   1.272       .  A
O558        C565   1.272       .  A
O559        C566   1.265       .  A
O560        C567   1.265       .  A
O561        C567   1.272       .  A
C562       C1049   1.482   1_556  S
C564        C646   1.483   1_556  S
C565        C677   1.425       .  S
C566        C676   1.427       .  S
C567        C680   1.427       .  S
Zn568       O572   1.970       .  S
Zn568       O573   2.001       .  S
Zn568       O577   2.003       .  S
Zn568       O584   2.003       .  S
Zn569       O572   1.980       .  S
Zn569       O574   2.110       .  S
Zn569       O576   2.112       .  S
Zn569       O580   2.110       .  S
Zn570       O572   1.969       .  S
Zn570       O575   2.003       .  S
Zn570       O578   2.001       .  S
Zn570       O581   2.005       .  S
Zn571       O572   1.969       .  S
Zn571       O579   2.005       .  S
Zn571       O582   2.001       .  S
Zn571       O583   2.003       .  S
O573        C585   1.270       .  A
O574        C586   1.286       .  A
O575        C587   1.269       .  A
O576        C585   1.286       .  A
O577        C587   1.269       .  A
O578        C586   1.270       .  A
O579        C588   1.269       .  A
O580        C589   1.286       .  A
O581        C588   1.269       .  A
O582        C589   1.270       .  A
O583        C590   1.269       .  A
O584        C590   1.269       .  A
C585       C1027   1.481       .  S
C587        C669   1.429       .  S
C588        C671   1.430       .  S
C589        C618   1.481       .  S
C590        C673   1.429       .  S
C591        H592   1.111       .  S
C591        C596   1.527       .  S
C593        C599   1.531       .  S
H594        C729   1.111       .  S
C595        C999   1.527       .  S
C595        C598   1.368       .  D
C595        C675   1.436       .  S
C596        C599   1.368       .  D
C596        C678   1.434       .  S
C597       C1135   1.527       .  S
C597        C600   1.368       .  D
C597        C679   1.436       .  S
C598       C1001   1.531       .  S
C598        C670   1.437       .  S
C599        C672   1.439       .  S
C600       C1137   1.531       .  S
C600        C674   1.437       .  S
Zn601       O605   1.972       .  S
Zn601       O606   2.055       .  S
Zn601       O610   2.055       .  S
Zn601       O617   2.015       .  S
Zn602       O605   1.972       .  S
Zn602       O607   2.057       .  S
Zn602       O609   2.058       .  S
Zn602       O613   2.018       .  S
Zn603       O605   1.972       .  S
Zn603       O608   2.058       .  S
Zn603       O611   2.057       .  S
Zn603       O614   2.018       .  S
Zn604       O605   1.960       .  S
Zn604       O612   1.975       .  S
Zn604       O615   1.975       .  S
Zn604       O616   1.971       .  S
O606        C618   1.278       .  A
O607        C619   1.279       .  A
O608        C620   1.279       .  A
O609        C618   1.279       .  A
O610        C620   1.278       .  A
O611        C619   1.279       .  A
O612        C621   1.265       .  A
O613        C622   1.271       .  A
O614        C621   1.271       .  A
O615        C622   1.265       .  A
O616        C623   1.264       .  A
O617        C623   1.270       .  A
C620        C722   1.481       .  S
C621        C668   1.425       .  S
C622        C665   1.425       .  S
C623        C664   1.423       .  S
Zn624       O628   1.967       .  S
Zn624       O629   2.044       .  S
Zn624       O633   2.021       .  S
Zn624       O640   2.043       .  S
Zn625       O628   1.967       .  S
Zn625       O630   2.021       .  S
Zn625       O632   2.044       .  S
Zn625       O636   2.043       .  S
Zn626       O628   1.960       .  S
Zn626       O631   1.973       .  S
Zn626       O634   1.973       .  S
Zn626       O637   1.976       .  S
Zn627       O628   1.967       .  S
Zn627       O635   2.025       .  S
Zn627       O638   2.046       .  S
Zn627       O639   2.046       .  S
O629        C641   1.278       .  A
O630        C642   1.271       .  A
O631        C643   1.265       .  A
O632        C641   1.278       .  A
O633        C643   1.271       .  A
O634        C642   1.265       .  A
O635        C644   1.272       .  A
O636        C645   1.278       .  A
O637        C644   1.265       .  A
O638        C645   1.278       .  A
O639        C646   1.278       .  A
O640        C646   1.278       .  A
C642        C661   1.425       .  S
C643        C658   1.425       .  S
C644        C660   1.427       .  S
C645        C699   1.483   1_554  S
C647        H648   1.112       .  S
C647        C653   1.527       .  S
C649        H650   1.111       .  S
C649        C656   1.527       .  S
C651        C783   1.527       .  S
C651        C654   1.367       .  D
C651        C667   1.434       .  S
C652       C1191   1.527       .  S
C652        C655   1.368       .  D
C652        C663   1.432       .  S
C653        C656   1.367       .  D
C653        C666   1.434       .  S
C654        C785   1.527       .  S
C654        C662   1.433       .  S
C655       C1193   1.526       .  S
C655        C659   1.435       .  S
C656        C657   1.433       .  S
C657        C658   1.199       .  T
C659        C660   1.201       .  T
C661        C662   1.199       .  T
C663        C664   1.199       .  T
C665        C666   1.200       .  T
C667        C668   1.200       .  T
C669        C670   1.202       .  T
C671        C672   1.203       .  T
C673        C674   1.202       .  T
C675        C676   1.201       .  T
C677        C678   1.200       .  T
C679        C680   1.201       .  T
Zn681       O685   1.968       .  S
Zn681       O686   2.044       .  S
Zn681       O690   2.045       .  S
Zn681       O697   2.025       .  S
Zn682       O685   1.968       .  S
Zn682       O687   2.045       .  S
Zn682       O689   2.044       .  S
Zn682       O693   2.025       .  S
Zn683       O685   1.968       .  S
Zn683       O688   2.045       .  S
Zn683       O691   2.045       .  S
Zn683       O694   2.023       .  S
Zn684       O685   1.960       .  S
Zn684       O692   1.974       .  S
Zn684       O695   1.977       .  S
Zn684       O696   1.977       .  S
O686        C698   1.278       .  A
O687        C699   1.278       .  A
O688        C700   1.278       .  A
O689        C698   1.278       .  A
O690        C700   1.278       .  A
O691        C699   1.278       .  A
O692        C701   1.265       .  A
O693        C702   1.272       .  A
O694        C701   1.272       .  A
O695        C702   1.265       .  A
O696        C703   1.265       .  A
O697        C703   1.272       .  A
C698       C1185   1.482   1_556  S
C700        C782   1.483   1_556  S
C701        C813   1.425       .  S
C702        C812   1.427       .  S
C703        C816   1.427       .  S
Zn704       O708   1.970       .  S
Zn704       O709   2.001       .  S
Zn704       O713   2.003       .  S
Zn704       O720   2.003       .  S
Zn705       O708   1.980       .  S
Zn705       O710   2.110       .  S
Zn705       O712   2.112       .  S
Zn705       O716   2.110       .  S
Zn706       O708   1.969       .  S
Zn706       O711   2.003       .  S
Zn706       O714   2.001       .  S
Zn706       O717   2.005       .  S
Zn707       O708   1.969       .  S
Zn707       O715   2.005       .  S
Zn707       O718   2.001       .  S
Zn707       O719   2.003       .  S
O709        C721   1.270       .  A
O710        C722   1.286       .  A
O711        C723   1.269       .  A
O712        C721   1.286       .  A
O713        C723   1.269       .  A
O714        C722   1.270       .  A
O715        C724   1.269       .  A
O716        C725   1.286       .  A
O717        C724   1.269       .  A
O718        C725   1.270       .  A
O719        C726   1.269       .  A
O720        C726   1.269       .  A
C721       C1163   1.481       .  S
C723        C805   1.429       .  S
C724        C807   1.430       .  S
C725        C754   1.481       .  S
C726        C809   1.429       .  S
C727        H728   1.111       .  S
C727        C732   1.527       .  S
C729        C735   1.531       .  S
C731       C1135   1.527       .  S
C731        C734   1.368       .  D
C731        C811   1.436       .  S
C732        C735   1.368       .  D
C732        C814   1.434       .  S
C733        C863   1.527   1_565  S
C733        C736   1.368       .  D
C733        C815   1.436       .  S
C734       C1137   1.531       .  S
C734        C806   1.437       .  S
C735        C808   1.439       .  S
C736        C865   1.531   1_565  S
C736        C810   1.437       .  S
Zn737       O741   1.972       .  S
Zn737       O742   2.055       .  S
Zn737       O746   2.055       .  S
Zn737       O753   2.015       .  S
Zn738       O741   1.972       .  S
Zn738       O743   2.057       .  S
Zn738       O745   2.058       .  S
Zn738       O749   2.018       .  S
Zn739       O741   1.972       .  S
Zn739       O744   2.058       .  S
Zn739       O747   2.057       .  S
Zn739       O750   2.018       .  S
Zn740       O741   1.960       .  S
Zn740       O748   1.975       .  S
Zn740       O751   1.975       .  S
Zn740       O752   1.971       .  S
O742        C754   1.278       .  A
O743        C755   1.279       .  A
O744        C756   1.279       .  A
O745        C754   1.279       .  A
O746        C756   1.278       .  A
O747        C755   1.279       .  A
O748        C757   1.265       .  A
O749        C758   1.271       .  A
O750        C757   1.271       .  A
O751        C758   1.265       .  A
O752        C759   1.264       .  A
O753        C759   1.270       .  A
C757        C804   1.425       .  S
C758        C801   1.425       .  S
C759        C800   1.423       .  S
Zn760       O764   1.967       .  S
Zn760       O765   2.044       .  S
Zn760       O769   2.021       .  S
Zn760       O776   2.043       .  S
Zn761       O764   1.967       .  S
Zn761       O766   2.021       .  S
Zn761       O768   2.044       .  S
Zn761       O772   2.043       .  S
Zn762       O764   1.960       .  S
Zn762       O767   1.973       .  S
Zn762       O770   1.973       .  S
Zn762       O773   1.976       .  S
Zn763       O764   1.967       .  S
Zn763       O771   2.025       .  S
Zn763       O774   2.046       .  S
Zn763       O775   2.046       .  S
O765        C777   1.278       .  A
O766        C778   1.271       .  A
O767        C779   1.265       .  A
O768        C777   1.278       .  A
O769        C779   1.271       .  A
O770        C778   1.265       .  A
O771        C780   1.272       .  A
O772        C781   1.278       .  A
O773        C780   1.265       .  A
O774        C781   1.278       .  A
O775        C782   1.278       .  A
O776        C782   1.278       .  A
C778        C797   1.425       .  S
C779        C794   1.425       .  S
C780        C796   1.427       .  S
C783        H784   1.112       .  S
C783        C789   1.527       .  S
C785        H786   1.111       .  S
C785        C792   1.527       .  S
C787        C790   1.367       .  D
C787        C803   1.434       .  S
C788        C919   1.527   1_565  S
C788        C791   1.368       .  D
C788        C799   1.432       .  S
C789        C792   1.367       .  D
C789        C802   1.434       .  S
C790        C798   1.433       .  S
C791        C921   1.526   1_565  S
C791        C795   1.435       .  S
C792        C793   1.433       .  S
C793        C794   1.199       .  T
C795        C796   1.201       .  T
C797        C798   1.199       .  T
C799        C800   1.199       .  T
C801        C802   1.200       .  T
C803        C804   1.200       .  T
C805        C806   1.202       .  T
C807        C808   1.203       .  T
C809        C810   1.202       .  T
C811        C812   1.201       .  T
C813        C814   1.200       .  T
C815        C816   1.201       .  T
Zn817       O821   1.968       .  S
Zn817       O822   2.044       .  S
Zn817       O826   2.045       .  S
Zn817       O833   2.025       .  S
Zn818       O821   1.968       .  S
Zn818       O823   2.045       .  S
Zn818       O825   2.044       .  S
Zn818       O829   2.025       .  S
Zn819       O821   1.968       .  S
Zn819       O824   2.045       .  S
Zn819       O827   2.045       .  S
Zn819       O830   2.023       .  S
Zn820       O821   1.960       .  S
Zn820       O828   1.974       .  S
Zn820       O831   1.977       .  S
Zn820       O832   1.977       .  S
O822        C834   1.278       .  A
O823        C835   1.278       .  A
O824        C836   1.278       .  A
O825        C834   1.278       .  A
O826        C836   1.278       .  A
O827        C835   1.278       .  A
O828        C837   1.265       .  A
O829        C838   1.272       .  A
O830        C837   1.272       .  A
O831        C838   1.265       .  A
O832        C839   1.265       .  A
O833        C839   1.272       .  A
C835       C1189   1.483   1_546  S
C836        C918   1.483   1_556  S
C837        C949   1.425       .  S
C838        C948   1.427       .  S
C839        C952   1.427       .  S
Zn840       O844   1.970       .  S
Zn840       O845   2.001       .  S
Zn840       O849   2.003       .  S
Zn840       O856   2.003       .  S
Zn841       O844   1.980       .  S
Zn841       O846   2.110       .  S
Zn841       O848   2.112       .  S
Zn841       O852   2.110       .  S
Zn842       O844   1.969       .  S
Zn842       O847   2.003       .  S
Zn842       O850   2.001       .  S
Zn842       O853   2.005       .  S
Zn843       O844   1.969       .  S
Zn843       O851   2.005       .  S
Zn843       O854   2.001       .  S
Zn843       O855   2.003       .  S
O845        C857   1.270       .  A
O846        C858   1.286       .  A
O847        C859   1.269       .  A
O848        C857   1.286       .  A
O849        C859   1.269       .  A
O850        C858   1.270       .  A
O851        C860   1.269       .  A
O852        C861   1.286       .  A
O853        C860   1.269       .  A
O854        C861   1.270       .  A
O855        C862   1.269       .  A
O856        C862   1.269       .  A
C858       C1164   1.481   1_545  S
C859        C941   1.429       .  S
C860        C943   1.430       .  S
C861        C890   1.481       .  S
C862        C945   1.429       .  S
C863        H864   1.111       .  S
C863        C868   1.527       .  S
C865       H1138   1.111       .  S
C865        C871   1.531       .  S
H866       C1001   1.111       .  S
C867        C870   1.368       .  D
C867        C947   1.436       .  S
C868        C871   1.368       .  D
C868        C950   1.434       .  S
C869        C872   1.368       .  D
C869        C951   1.436       .  S
C870        C942   1.437       .  S
C871        C944   1.439       .  S
C872        C946   1.437       .  S
Zn873       O877   1.972       .  S
Zn873       O878   2.055       .  S
Zn873       O882   2.055       .  S
Zn873       O889   2.015       .  S
Zn874       O877   1.972       .  S
Zn874       O879   2.057       .  S
Zn874       O881   2.058       .  S
Zn874       O885   2.018       .  S
Zn875       O877   1.972       .  S
Zn875       O880   2.058       .  S
Zn875       O883   2.057       .  S
Zn875       O886   2.018       .  S
Zn876       O877   1.960       .  S
Zn876       O884   1.975       .  S
Zn876       O887   1.975       .  S
Zn876       O888   1.971       .  S
O878        C890   1.278       .  A
O879        C891   1.279       .  A
O880        C892   1.279       .  A
O881        C890   1.279       .  A
O882        C892   1.278       .  A
O883        C891   1.279       .  A
O884        C893   1.265       .  A
O885        C894   1.271       .  A
O886        C893   1.271       .  A
O887        C894   1.265       .  A
O888        C895   1.264       .  A
O889        C895   1.270       .  A
C892        C994   1.481       .  S
C893        C940   1.425       .  S
C894        C937   1.425       .  S
C895        C936   1.423       .  S
Zn896       O900   1.967       .  S
Zn896       O901   2.044       .  S
Zn896       O905   2.021       .  S
Zn896       O912   2.043       .  S
Zn897       O900   1.967       .  S
Zn897       O902   2.021       .  S
Zn897       O904   2.044       .  S
Zn897       O908   2.043       .  S
Zn898       O900   1.960       .  S
Zn898       O903   1.973       .  S
Zn898       O906   1.973       .  S
Zn898       O909   1.976       .  S
Zn899       O900   1.967       .  S
Zn899       O907   2.025       .  S
Zn899       O910   2.046       .  S
Zn899       O911   2.046       .  S
O901        C913   1.278       .  A
O902        C914   1.271       .  A
O903        C915   1.265       .  A
O904        C913   1.278       .  A
O905        C915   1.271       .  A
O906        C914   1.265       .  A
O907        C916   1.272       .  A
O908        C917   1.278       .  A
O909        C916   1.265       .  A
O910        C917   1.278       .  A
O911        C918   1.278       .  A
O912        C918   1.278       .  A
C914        C933   1.425       .  S
C915        C930   1.425       .  S
C916        C932   1.427       .  S
C917        C971   1.483   1_554  S
C919        H920   1.112       .  S
C919        C925   1.527       .  S
C919       C1195   1.527   1_545  S
C921        H922   1.111   1_545  S
C921       C1198   1.527   1_545  S
C921        C928   1.527       .  S
C923       C1055   1.527       .  S
C923        C926   1.367       .  D
C923        C939   1.434       .  S
C924        C927   1.368       .  D
C924        C935   1.432       .  S
C925        C928   1.367       .  D
C925        C938   1.434       .  S
C926       C1057   1.527       .  S
C926        C934   1.433       .  S
C927        C931   1.435       .  S
C928        C929   1.433       .  S
C929        C930   1.199       .  T
C931        C932   1.201       .  T
C933        C934   1.199       .  T
C935        C936   1.199       .  T
C937        C938   1.200       .  T
C939        C940   1.200       .  T
C941        C942   1.202       .  T
C943        C944   1.203       .  T
C945        C946   1.202       .  T
C947        C948   1.201       .  T
C949        C950   1.200       .  T
C951        C952   1.201       .  T
Zn953       O957   1.968       .  S
Zn953       O958   2.044       .  S
Zn953       O962   2.045       .  S
Zn953       O969   2.025       .  S
Zn954       O957   1.968       .  S
Zn954       O959   2.045       .  S
Zn954       O961   2.044       .  S
Zn954       O965   2.025       .  S
Zn955       O957   1.968       .  S
Zn955       O960   2.045       .  S
Zn955       O963   2.045       .  S
Zn955       O966   2.023       .  S
Zn956       O957   1.960       .  S
Zn956       O964   1.974       .  S
Zn956       O967   1.977       .  S
Zn956       O968   1.977       .  S
O958        C970   1.278       .  A
O959        C971   1.278       .  A
O960        C972   1.278       .  A
O961        C970   1.278       .  A
O962        C972   1.278       .  A
O963        C971   1.278       .  A
O964        C973   1.265       .  A
O965        C974   1.272       .  A
O966        C973   1.272       .  A
O967        C974   1.265       .  A
O968        C975   1.265       .  A
O969        C975   1.272       .  A
C972       C1054   1.483   1_556  S
C973       C1085   1.425       .  S
C974       C1084   1.427       .  S
C975       C1088   1.427       .  S
Zn976       O980   1.970       .  S
Zn976       O981   2.001       .  S
Zn976       O985   2.003       .  S
Zn976       O992   2.003       .  S
Zn977       O980   1.980       .  S
Zn977       O982   2.110       .  S
Zn977       O984   2.112       .  S
Zn977       O988   2.110       .  S
Zn978       O980   1.969       .  S
Zn978       O983   2.003       .  S
Zn978       O986   2.001       .  S
Zn978       O989   2.005       .  S
Zn979       O980   1.969       .  S
Zn979       O987   2.005       .  S
Zn979       O990   2.001       .  S
Zn979       O991   2.003       .  S
O981        C993   1.270       .  A
O982        C994   1.286       .  A
O983        C995   1.269       .  A
O984        C993   1.286       .  A
O985        C995   1.269       .  A
O986        C994   1.270       .  A
O987        C996   1.269       .  A
O988        C997   1.286       .  A
O989        C996   1.269       .  A
O990        C997   1.270       .  A
O991        C998   1.269       .  A
O992        C998   1.269       .  A
C995       C1077   1.429       .  S
C996       C1079   1.430       .  S
C997       C1026   1.481       .  S
C998       C1081   1.429       .  S
C999       H1000   1.111       .  S
C999       C1004   1.527       .  S
C1001      C1007   1.531       .  S
H1002      C1137   1.111       .  S
C1003      C1006   1.368       .  D
C1003      C1083   1.436       .  S
C1004      C1007   1.368       .  D
C1004      C1086   1.434       .  S
C1005      C1008   1.368       .  D
C1005      C1087   1.436       .  S
C1006      C1078   1.437       .  S
C1007      C1080   1.439       .  S
C1008      C1082   1.437       .  S
Zn1009     O1013   1.972       .  S
Zn1009     O1014   2.055       .  S
Zn1009     O1018   2.055       .  S
Zn1009     O1025   2.015       .  S
Zn1010     O1013   1.972       .  S
Zn1010     O1015   2.057       .  S
Zn1010     O1017   2.058       .  S
Zn1010     O1021   2.018       .  S
Zn1011     O1013   1.972       .  S
Zn1011     O1016   2.058       .  S
Zn1011     O1019   2.057       .  S
Zn1011     O1022   2.018       .  S
Zn1012     O1013   1.960       .  S
Zn1012     O1020   1.975       .  S
Zn1012     O1023   1.975       .  S
Zn1012     O1024   1.971       .  S
O1014      C1026   1.278       .  A
O1015      C1027   1.279       .  A
O1016      C1028   1.279       .  A
O1017      C1026   1.279       .  A
O1018      C1028   1.278       .  A
O1019      C1027   1.279       .  A
O1020      C1029   1.265       .  A
O1021      C1030   1.271       .  A
O1022      C1029   1.271       .  A
O1023      C1030   1.265       .  A
O1024      C1031   1.264       .  A
O1025      C1031   1.270       .  A
C1028      C1130   1.481       .  S
C1029      C1076   1.425       .  S
C1030      C1073   1.425       .  S
C1031      C1072   1.423       .  S
Zn1032     O1036   1.967       .  S
Zn1032     O1037   2.044       .  S
Zn1032     O1041   2.021       .  S
Zn1032     O1048   2.043       .  S
Zn1033     O1036   1.967       .  S
Zn1033     O1038   2.021       .  S
Zn1033     O1040   2.044       .  S
Zn1033     O1044   2.043       .  S
Zn1034     O1036   1.960       .  S
Zn1034     O1039   1.973       .  S
Zn1034     O1042   1.973       .  S
Zn1034     O1045   1.976       .  S
Zn1035     O1036   1.967       .  S
Zn1035     O1043   2.025       .  S
Zn1035     O1046   2.046       .  S
Zn1035     O1047   2.046       .  S
O1037      C1049   1.278       .  A
O1038      C1050   1.271       .  A
O1039      C1051   1.265       .  A
O1040      C1049   1.278       .  A
O1041      C1051   1.271       .  A
O1042      C1050   1.265       .  A
O1043      C1052   1.272       .  A
O1044      C1053   1.278       .  A
O1045      C1052   1.265       .  A
O1046      C1053   1.278       .  A
O1047      C1054   1.278       .  A
O1048      C1054   1.278       .  A
C1050      C1069   1.425       .  S
C1051      C1066   1.425       .  S
C1052      C1068   1.427       .  S
C1053      C1107   1.483   1_554  S
C1055      H1056   1.112       .  S
C1055      C1061   1.527       .  S
C1057      H1058   1.111       .  S
C1057      C1064   1.527       .  S
C1059      C1191   1.527       .  S
C1059      C1062   1.367       .  D
C1059      C1075   1.434       .  S
C1060      C1063   1.368       .  D
C1060      C1071   1.432       .  S
C1061      C1064   1.367       .  D
C1061      C1074   1.434       .  S
C1062      C1193   1.527       .  S
C1062      C1070   1.433       .  S
C1063      C1067   1.435       .  S
C1064      C1065   1.433       .  S
C1065      C1066   1.199       .  T
C1067      C1068   1.201       .  T
C1069      C1070   1.199       .  T
C1071      C1072   1.199       .  T
C1073      C1074   1.200       .  T
C1075      C1076   1.200       .  T
C1077      C1078   1.202       .  T
C1079      C1080   1.203       .  T
C1081      C1082   1.202       .  T
C1083      C1084   1.201       .  T
C1085      C1086   1.200       .  T
C1087      C1088   1.201       .  T
Zn1089     O1093   1.968       .  S
Zn1089     O1094   2.044       .  S
Zn1089     O1098   2.045       .  S
Zn1089     O1105   2.025       .  S
Zn1090     O1093   1.968       .  S
Zn1090     O1095   2.045       .  S
Zn1090     O1097   2.044       .  S
Zn1090     O1101   2.025       .  S
Zn1091     O1093   1.968       .  S
Zn1091     O1096   2.045       .  S
Zn1091     O1099   2.045       .  S
Zn1091     O1102   2.023       .  S
Zn1092     O1093   1.960       .  S
Zn1092     O1100   1.974       .  S
Zn1092     O1103   1.977       .  S
Zn1092     O1104   1.977       .  S
O1094      C1106   1.278       .  A
O1095      C1107   1.278       .  A
O1096      C1108   1.278       .  A
O1097      C1106   1.278       .  A
O1098      C1108   1.278       .  A
O1099      C1107   1.278       .  A
O1100      C1109   1.265       .  A
O1101      C1110   1.272       .  A
O1102      C1109   1.272       .  A
O1103      C1110   1.265       .  A
O1104      C1111   1.265       .  A
O1105      C1111   1.272       .  A
C1108      C1190   1.483   1_556  S
C1109      C1221   1.425       .  S
C1110      C1220   1.427       .  S
C1111      C1224   1.427       .  S
Zn1112     O1116   1.970       .  S
Zn1112     O1117   2.001       .  S
Zn1112     O1121   2.003       .  S
Zn1112     O1128   2.003       .  S
Zn1113     O1116   1.980       .  S
Zn1113     O1118   2.110       .  S
Zn1113     O1120   2.112       .  S
Zn1113     O1124   2.110       .  S
Zn1114     O1116   1.969       .  S
Zn1114     O1119   2.003       .  S
Zn1114     O1122   2.001       .  S
Zn1114     O1125   2.005       .  S
Zn1115     O1116   1.969       .  S
Zn1115     O1123   2.005       .  S
Zn1115     O1126   2.001       .  S
Zn1115     O1127   2.003       .  S
O1117      C1129   1.270       .  A
O1118      C1130   1.286       .  A
O1119      C1131   1.269       .  A
O1120      C1129   1.286       .  A
O1121      C1131   1.269       .  A
O1122      C1130   1.270       .  A
O1123      C1132   1.269       .  A
O1124      C1133   1.286       .  A
O1125      C1132   1.269       .  A
O1126      C1133   1.270       .  A
O1127      C1134   1.269       .  A
O1128      C1134   1.269       .  A
C1131      C1213   1.429       .  S
C1132      C1215   1.430       .  S
C1133      C1162   1.481       .  S
C1134      C1217   1.429       .  S
C1135      H1136   1.111       .  S
C1135      C1140   1.527       .  S
C1137      C1143   1.531       .  S
C1139      C1142   1.368       .  D
C1139      C1219   1.436       .  S
C1140      C1143   1.368       .  D
C1140      C1222   1.434       .  S
C1141      C1144   1.368       .  D
C1141      C1223   1.436       .  S
C1142      C1214   1.437       .  S
C1143      C1216   1.439       .  S
C1144      C1218   1.437       .  S
Zn1145     O1149   1.972       .  S
Zn1145     O1150   2.055       .  S
Zn1145     O1154   2.055       .  S
Zn1145     O1161   2.015       .  S
Zn1146     O1149   1.972       .  S
Zn1146     O1151   2.057       .  S
Zn1146     O1153   2.058       .  S
Zn1146     O1157   2.018       .  S
Zn1147     O1149   1.972       .  S
Zn1147     O1152   2.058       .  S
Zn1147     O1155   2.057       .  S
Zn1147     O1158   2.018       .  S
Zn1148     O1149   1.960       .  S
Zn1148     O1156   1.975       .  S
Zn1148     O1159   1.975       .  S
Zn1148     O1160   1.971       .  S
O1150      C1162   1.278       .  A
O1151      C1163   1.279       .  A
O1152      C1164   1.279       .  A
O1153      C1162   1.279       .  A
O1154      C1164   1.278       .  A
O1155      C1163   1.279       .  A
O1156      C1165   1.265       .  A
O1157      C1166   1.271       .  A
O1158      C1165   1.271       .  A
O1159      C1166   1.265       .  A
O1160      C1167   1.264       .  A
O1161      C1167   1.270       .  A
C1165      C1212   1.425       .  S
C1166      C1209   1.425       .  S
C1167      C1208   1.423       .  S
Zn1168     O1172   1.967       .  S
Zn1168     O1173   2.044       .  S
Zn1168     O1177   2.021       .  S
Zn1168     O1184   2.043       .  S
Zn1169     O1172   1.967       .  S
Zn1169     O1174   2.021       .  S
Zn1169     O1176   2.044       .  S
Zn1169     O1180   2.043       .  S
Zn1170     O1172   1.960       .  S
Zn1170     O1175   1.973       .  S
Zn1170     O1178   1.973       .  S
Zn1170     O1181   1.976       .  S
Zn1171     O1172   1.967       .  S
Zn1171     O1179   2.025       .  S
Zn1171     O1182   2.046       .  S
Zn1171     O1183   2.046       .  S
O1173      C1185   1.278       .  A
O1174      C1186   1.271       .  A
O1175      C1187   1.265       .  A
O1176      C1185   1.278       .  A
O1177      C1187   1.271       .  A
O1178      C1186   1.265       .  A
O1179      C1188   1.272       .  A
O1180      C1189   1.278       .  A
O1181      C1188   1.265       .  A
O1182      C1189   1.278       .  A
O1183      C1190   1.278       .  A
O1184      C1190   1.278       .  A
C1186      C1205   1.425       .  S
C1187      C1202   1.425       .  S
C1188      C1204   1.427       .  S
C1191      H1192   1.112       .  S
C1191      C1197   1.527       .  S
C1193      H1194   1.111       .  S
C1193      C1200   1.527       .  S
C1195      C1198   1.367       .  D
C1195      C1211   1.434       .  S
C1196      C1199   1.368       .  D
C1196      C1207   1.432       .  S
C1197      C1200   1.367       .  D
C1197      C1210   1.434       .  S
C1198      C1206   1.433       .  S
C1199      C1203   1.435       .  S
C1200      C1201   1.433       .  S
C1201      C1202   1.199       .  T
C1203      C1204   1.201       .  T
C1205      C1206   1.199       .  T
C1207      C1208   1.199       .  T
C1209      C1210   1.200       .  T
C1211      C1212   1.200       .  T
C1213      C1214   1.202       .  T
C1215      C1216   1.203       .  T
C1217      C1218   1.202       .  T
C1219      C1220   1.201       .  T
C1221      C1222   1.200       .  T
C1223      C1224   1.201       .  T
