geometry optimzed in LAMMPS
_audit_creation_date              2020-12-01 
_audit_creation_method            'lammps2cif' 
_symmetry_space_group_name_H-M    'P1' 
_symmetry_Int_Tables_number       1 
_symmetry_cell_setting            triclinic 
loop_ 
_symmetry_equiv_pos_as_xyz 
  x,y,z 
_cell_length_a                    37.62159148 
_cell_length_b                    37.62121539367671 
_cell_length_c                    38.8123246504627 
_cell_angle_alpha                 89.9998140869661 
_cell_angle_beta                  89.99979093681279 
_cell_angle_gamma                 90.00080103369433 
loop_ 
_atom_site_label 
_atom_site_type_symbol 
_atom_site_fract_x 
_atom_site_fract_y 
_atom_site_fract_z 
_atom_site_charge 
O1          O  0.10293649  0.34620680  0.07925055    -0.74100
O2          O  0.11590625  0.43477112  0.12668628    -0.74100
O3          O  0.15363261  0.39718847  0.07929596    -0.74200
O4          O  0.06506162  0.38364980  0.12659757    -0.74300
O5          O  0.09349193  0.35584454  0.16918892    -0.74200
O6          O  0.18172142  0.36930957  0.12202576    -0.74200
O7          O  0.14385548  0.40641141  0.16923199    -0.74100
O8          O  0.13088879  0.31818962  0.12197782    -0.74200
Ni9        Ni  0.10834802  0.39149218  0.10144491     1.25400
Ni10       Ni  0.13851506  0.36141879  0.14703666     1.25400
C11         C  0.11496083  0.31754766  0.09278098     0.88100
C12         C  0.13166122  0.43508519  0.15599659     0.88000
C13         C  0.18231898  0.38522814  0.09282252     0.88000
C14         C  0.06477029  0.36789239  0.15590364     0.88200
C15         C  0.21656500  0.38879978  0.07425534     0.03400
C16         C  0.21737444  0.39402534  0.03834904    -0.12700
C17         C  0.24969580  0.39268237  0.01949617     0.00900
C18         C  0.28140822  0.38885322  0.03876216    -0.11200
C19         C  0.28103498  0.38564372  0.07480955     0.03400
C20         C  0.24856061  0.38483071  0.09223446    -0.10700
H21         H  0.19225745  0.39807032  0.02568408     0.09000
H22         H  0.30689612  0.38688411  0.02634429     0.06600
H23         H  0.24822077  0.38136097  0.11995525     0.06400
C24         C  0.28293876  0.38895097  0.42545043     0.03400
C25         C  0.28233874  0.39478426  0.46125444    -0.12700
C26         C  0.25014930  0.39386873  0.48027418     0.00900
C27         C  0.21827357  0.39014600  0.46119075    -0.11200
C28         C  0.21843161  0.38617278  0.42520098     0.03400
C29         C  0.25084537  0.38479756  0.40767044    -0.10700
H30         H  0.30753378  0.39888619  0.47375265     0.09000
H31         H  0.19281263  0.38874438  0.47372267     0.06600
H32         H  0.25106772  0.38078073  0.38001978     0.06400
C33         C  0.46647909  0.36090507  0.17560931     0.03400
C34         C  0.99853643  0.36502065  0.15755101    -0.12700
C35         C  0.03099621  0.36386429  0.17499400     0.00900
C36         C  0.03129098  0.36024853  0.21102181    -0.11200
C37         C  0.49949907  0.35635864  0.23032310     0.03400
C38         C  0.46725827  0.35496718  0.21139511    -0.10700
H39         H  0.99823008  0.36872447  0.12985895     0.09000
H40         H  0.05680043  0.36173510  0.22344948     0.06600
H41         H  0.44216928  0.35042333  0.22396416     0.06400
C42         C  0.03285485  0.36152525  0.32428946     0.03400
C43         C  0.03217915  0.35600657  0.28842784    -0.12700
C44         C  0.49986266  0.35637525  0.26950492     0.00900
C45         C  0.46806412  0.36028237  0.28863043    -0.11200
C46         C  0.46833535  0.36407357  0.32462240     0.03400
C47         C  0.50078411  0.36548970  0.34206918    -0.10700
H48         H  0.05737675  0.35215790  0.27586281     0.09000
H49         H  0.44259710  0.36192400  0.27612458     0.06600
H50         H  0.50107033  0.36952418  0.36971672     0.06400
O51         O  0.15587533  0.39414629  0.41950274    -0.74100
O52         O  0.06764968  0.38115431  0.37209699    -0.74100
O53         O  0.10523311  0.34373808  0.41933593    -0.73400
O54         O  0.11876599  0.43200402  0.37222604    -0.74300
O55         O  0.14669911  0.40386540  0.32955480    -0.74200
O56         O  0.13318404  0.31536371  0.37680259    -0.74200
O57         O  0.09576136  0.35318639  0.32943699    -0.74100
O58         O  0.18426035  0.36625851  0.37693652    -0.74200
Ni59       Ni  0.11085296  0.38878759  0.39723352     1.25400
Ni60       Ni  0.14100699  0.35863233  0.35168373     1.25400
C61         C  0.18458785  0.38205562  0.40621954     0.88100
C62         C  0.06707234  0.36521652  0.34290109     0.88000
C63         C  0.11734562  0.31503442  0.40605839     0.88000
C64         C  0.13474087  0.43255792  0.34305015     0.88200
C65         C  0.21898721  0.11439942  0.07484163     0.03400
C66         C  0.21858770  0.11074409  0.03884931    -0.12700
C67         C  0.25025868  0.10652700  0.01964628     0.00900
C68         C  0.28259222  0.10511052  0.03848362    -0.11200
C69         C  0.28351022  0.11110492  0.07428159     0.03400
C70         C  0.25151174  0.11552604  0.09221883    -0.10700
H71         H  0.19312408  0.11270746  0.02637407     0.09000
H72         H  0.30762332  0.10048571  0.02582556     0.06600
H73         H  0.25188104  0.11948971  0.11987475     0.06400
C74         C  0.28152894  0.11341060  0.42492628     0.03400
C75         C  0.28177930  0.10986418  0.46096652    -0.12700
C76         C  0.24994645  0.10638200  0.48016664     0.00900
C77         C  0.21770927  0.10536432  0.46122116    -0.11200
C78         C  0.21704811  0.11080726  0.42536347     0.03400
C79         C  0.24909207  0.11462027  0.40745676    -0.10700
H80         H  0.30727236  0.11139627  0.47343128     0.09000
H81         H  0.19251561  0.10151831  0.47379782     0.06600
H82         H  0.24880608  0.11832835  0.37976464     0.06400
C83         C  0.11418420  0.21877831  0.07478974     0.03400
C84         C  0.11064236  0.21843279  0.03877022    -0.12700
C85         C  0.10678949  0.25017326  0.01954999     0.00900
C86         C  0.10563126  0.28247534  0.03841985    -0.11200
C87         C  0.11131005  0.28328126  0.07425408     0.03400
C88         C  0.11540805  0.25126863  0.09219218    -0.10700
H89         H  0.11240538  0.19294012  0.02631053     0.09000
H90         H  0.10139948  0.30758777  0.02578482     0.06600
H91         H  0.11920911  0.25160821  0.11987061     0.06400
C92         C  0.11164869  0.21671007  0.42565682     0.03400
C93         C  0.10616793  0.21738867  0.46152397    -0.12700
C94         C  0.10642044  0.24972636  0.48040512     0.00900
C95         C  0.10928832  0.28153483  0.46108911    -0.11200
C96         C  0.11342215  0.28123239  0.42512123     0.03400
C97         C  0.11531346  0.24877023  0.40774018    -0.10700
H98         H  0.10289046  0.19213354  0.47408642     0.09000
H99         H  0.10981484  0.30712084  0.47338114     0.06600
H100        H  0.11929066  0.24848343  0.38008387     0.06400
C101        C  0.46909555  0.13568559  0.17537125     0.03400
C102        C  0.46874409  0.13950075  0.21136997    -0.12700
C103        C  0.00039729  0.14349403  0.23030145     0.00900
C104        C  0.03269289  0.14423529  0.21139850    -0.11200
C105        C  0.03342873  0.13854680  0.17557321     0.03400
C106        C  0.00142360  0.13454603  0.15765698    -0.10700
H107        H  0.44330494  0.13744291  0.22389396     0.09000
H108        H  0.05788716  0.14810085  0.22395363     0.06600
H109        H  0.00175272  0.13058110  0.12999951     0.06400
C110        C  0.03158277  0.13613120  0.32471992     0.03400
C111        C  0.49905711  0.13456775  0.34216518    -0.12700
C112        C  0.46704224  0.13909927  0.32431643     0.00900
C113        C  0.46783817  0.14527520  0.28856758    -0.11200
C114        C  0.50008942  0.14401017  0.26966632     0.03400
C115        C  0.03181549  0.14015133  0.28874745    -0.10700
H116        H  0.49872722  0.13036987  0.36978870     0.09000
H117        H  0.44276897  0.14989001  0.27596614     0.06600
H118        H  0.05735725  0.13919159  0.27634314     0.06400
C119        C  0.13556198  0.46882185  0.17514901     0.03400
C120        C  0.13975411  0.46846518  0.21111999    -0.12700
C121        C  0.14303277  0.50024270  0.23043233     0.00900
C122        C  0.14477367  0.03260296  0.21129368    -0.11200
C123        C  0.13904007  0.03332109  0.17548007     0.03400
C124        C  0.13391159  0.50128742  0.15779688    -0.10700
H125        H  0.13899853  0.44287174  0.22343673     0.09000
H126        H  0.14889530  0.05776443  0.22384878     0.06600
H127        H  0.13088521  0.00159578  0.12994829     0.06400
C128        C  0.13650214  0.03142835  0.32457377     0.03400
C129        C  0.13501189  0.49879173  0.34243240    -0.12700
C130        C  0.13854535  0.46674623  0.32447339     0.00900
C131        C  0.14368020  0.46741919  0.28856434    -0.11200
C132        C  0.14322913  0.49974097  0.26968569     0.03400
C133        C  0.14026603  0.03171991  0.28858648    -0.10700
H134        H  0.13133648  0.49849443  0.37012772     0.09000
H135        H  0.14688951  0.44215966  0.27595562     0.06600
H136        H  0.13879311  0.05722631  0.27614569     0.06400
O137        O  0.11659156  0.06544430  0.37285919    -0.74100
O138        O  0.10350058  0.15379638  0.42049170    -0.74100
O139        O  0.06573126  0.11645928  0.37302988    -0.74200
O140        O  0.15416202  0.10281625  0.42030364    -0.74300
O141        O  0.18233181  0.13089617  0.37773932    -0.74200
O142        O  0.09411311  0.14442348  0.33050622    -0.74200
O143        O  0.13145203  0.18199791  0.37787380    -0.74100
O144        O  0.14459279  0.09390007  0.33039588    -0.74200
Ni145      Ni  0.10896100  0.10860644  0.39817037     1.25400
Ni146      Ni  0.13915395  0.13884939  0.35268980     1.25400
C147        C  0.13244478  0.06518627  0.34361473     0.88100
C148        C  0.11549907  0.18251254  0.40706193     0.88000
C149        C  0.06540987  0.13225726  0.34375952     0.88000
C150        C  0.18286904  0.11475498  0.40683008     0.88200
O151        O  0.13369689  0.18474274  0.12326208    -0.74100
O152        O  0.14727162  0.09621313  0.17046873    -0.74100
O153        O  0.18485426  0.13401513  0.12322393    -0.74200
O154        O  0.09629626  0.14682822  0.17056412    -0.74300
O155        O  0.06825410  0.11892467  0.12781658    -0.74200
O156        O  0.15656146  0.10602241  0.08065499    -0.74200
O157        O  0.11933440  0.06811191  0.12777730    -0.74100
O158        O  0.10594746  0.15632331  0.08062385    -0.74200
Ni159      Ni  0.14155061  0.14148067  0.14838998     1.25400
Ni160      Ni  0.11149547  0.11131179  0.10277651     1.25400
C161        C  0.11803681  0.18502679  0.09391527     0.88100
C162        C  0.13531026  0.06753122  0.15694462     0.88000
C163        C  0.18521366  0.11827643  0.09392393     0.88000
C164        C  0.06764324  0.13482194  0.15703099     0.88200
O165        O  0.31848876  0.13085472  0.12191778    -0.74100
O166        O  0.40662959  0.14372301  0.16944026    -0.74100
O167        O  0.36969055  0.18168857  0.12210728    -0.74200
O168        O  0.35602700  0.09341543  0.16917835    -0.74300
O169        O  0.38403290  0.06503531  0.12667701    -0.74200
O170        O  0.39757963  0.15359457  0.07939378    -0.74200
O171        O  0.43509965  0.11591722  0.12687592    -0.74100
O172        O  0.34654234  0.10283048  0.07926664    -0.74200
Ni173      Ni  0.36168049  0.13845191  0.14708459     1.25400
Ni174      Ni  0.39184706  0.10831333  0.10154067     1.25400
C175        C  0.31784570  0.11483937  0.09276269     0.88100
C176        C  0.43535177  0.13159858  0.15622722     0.88000
C177        C  0.38567362  0.18229641  0.09293014     0.88000
C178        C  0.36820847  0.06472455  0.15594169     0.88200
C179        C  0.38577305  0.28102955  0.07481059     0.03400
C180        C  0.38493072  0.24856182  0.09226412    -0.12700
C181        C  0.38936290  0.21656024  0.07437927     0.00900
C182        C  0.39511453  0.21738319  0.03854285    -0.11200
C183        C  0.39352473  0.24964736  0.01962925     0.03400
C184        C  0.38929010  0.28136572  0.03879339    -0.10700
H185        H  0.38111107  0.24823591  0.11994035     0.09000
H186        H  0.39967553  0.19231813  0.02590605     0.06600
H187        H  0.38718487  0.30681126  0.02627770     0.06400
C188        C  0.38573925  0.21864799  0.42510867     0.03400
C189        C  0.38405207  0.25109599  0.40767379    -0.12700
C190        C  0.38800620  0.28316561  0.42551958     0.00900
C191        C  0.39360596  0.28251622  0.46137149    -0.11200
C192        C  0.39308027  0.25024485  0.48032640     0.03400
C193        C  0.38977094  0.21839769  0.46110274    -0.10700
H194        H  0.38009591  0.25136132  0.38001490     0.09000
H195        H  0.39728568  0.30774391  0.47389305     0.06600
H196        H  0.38888234  0.19285449  0.47348362     0.06400
C197        C  0.36426160  0.03096541  0.17504360     0.03400
C198        C  0.36542255  0.49841218  0.15783965    -0.12700
C199        C  0.36101643  0.46642047  0.17573059     0.00900
C200        C  0.35507617  0.46723616  0.21152583    -0.11200
C201        C  0.35624884  0.49954268  0.23040446     0.03400
C202        C  0.36062311  0.03129163  0.21105274    -0.10700
H203        H  0.36944813  0.49808165  0.13019121     0.09000
H204        H  0.35068111  0.44212871  0.22411403     0.06600
H205        H  0.36220879  0.05681372  0.22345147     0.06400
C206        C  0.36167954  0.03309635  0.32416758     0.03400
C207        C  0.35606877  0.03231203  0.28834257    -0.12700
C208        C  0.35620796  0.50008899  0.26958589     0.00900
C209        C  0.35993818  0.46835072  0.28879200    -0.11200
C210        C  0.36384269  0.46870081  0.32475563     0.03400
C211        C  0.36530092  0.50117046  0.34215653    -0.10700
H212        H  0.35216070  0.05747368  0.27572175     0.09000
H213        H  0.36137506  0.44283234  0.27635734     0.06600
H214        H  0.36932635  0.50148382  0.36980503     0.06400
O215        O  0.36621300  0.18448075  0.37670140    -0.74100
O216        O  0.35348719  0.09601634  0.32911091    -0.74100
O217        O  0.31554586  0.13321582  0.37652779    -0.74200
O218        O  0.40406825  0.14712911  0.32929046    -0.74300
O219        O  0.43220511  0.11911868  0.37190639    -0.74200
O220        O  0.34403891  0.10548300  0.41912574    -0.74200
O221        O  0.38140413  0.06795905  0.37183832    -0.74100
O222        O  0.39431205  0.15618781  0.41919447    -0.74200
Ni223      Ni  0.35879617  0.14124099  0.35139535     1.25400
Ni224      Ni  0.38902744  0.11116097  0.39694351     1.25400
C225        C  0.38198699  0.18484019  0.40599518     0.88100
C226        C  0.36546562  0.06734718  0.34264879     0.88000
C227        C  0.31529414  0.11746467  0.40583804     0.88000
C228        C  0.43278337  0.13520841  0.34279340     0.88200
O229        O  0.35271518  0.40349484  0.17068575    -0.74100
O230        O  0.36595598  0.31502904  0.12320170    -0.74100
O231        O  0.40354383  0.35263996  0.17061180    -0.74200
O232        O  0.31502575  0.36600958  0.12326094    -0.74300
O233        O  0.34344322  0.39393320  0.08072374    -0.74200
O234        O  0.43162574  0.38061771  0.12793778    -0.74200
O235        O  0.39386326  0.34346900  0.08066988    -0.74100
O236        O  0.38068450  0.43159698  0.12801895    -0.74200
Ni237      Ni  0.35827510  0.35825942  0.14845217     1.25400
Ni238      Ni  0.38843167  0.38843751  0.10290854     1.25400
C239        C  0.36471418  0.43218022  0.15719457     0.88100
C240        C  0.38171668  0.31476523  0.09390293     0.88000
C241        C  0.43222863  0.36461694  0.15709421     0.88000
C242        C  0.31475258  0.38175931  0.09395698     0.88200
O243        O  0.39647995  0.34602856  0.42037152    -0.74100
O244        O  0.38349287  0.43459426  0.37309338    -0.74100
O245        O  0.34583451  0.39699098  0.42036683    -0.74200
O246        O  0.43428445  0.38358286  0.37305064    -0.74300
O247        O  0.40586919  0.35578973  0.33043746    -0.74200
O248        O  0.31765704  0.36908788  0.37770364    -0.74200
O249        O  0.35548498  0.40629436  0.33053674    -0.74100
O250        O  0.36851458  0.31798684  0.37766538    -0.74200
Ni251      Ni  0.39105795  0.39131361  0.39822906     1.25400
Ni252      Ni  0.36085237  0.36125334  0.35264334     1.25400
C253        C  0.38440214  0.31737357  0.40688686     0.88100
C254        C  0.36772051  0.43494265  0.34381193     0.88000
C255        C  0.31711996  0.38508900  0.40686567     0.88000
C256        C  0.43456571  0.36793336  0.34370384     0.88200
O257        O  0.10356302  0.34618284  0.57953033    -0.74100
O258        O  0.11657301  0.43479779  0.62680081    -0.74100
O259        O  0.15418023  0.39717710  0.57943742    -0.74200
O260        O  0.06577928  0.38367435  0.62692232    -0.74300
O261        O  0.09424408  0.35584176  0.66947117    -0.74200
O262        O  0.18241472  0.36935527  0.62211140    -0.74200
O263        O  0.14456766  0.40650498  0.66936530    -0.74100
O264        O  0.13165059  0.31816343  0.62217321    -0.74200
Ni265      Ni  0.10898773  0.39147818  0.60167151     1.25400
Ni266      Ni  0.13925621  0.36143943  0.64722164     1.25400
C267        C  0.11568731  0.31753327  0.59298909     0.88100
C268        C  0.13232567  0.43516017  0.65609722     0.88000
C269        C  0.18291608  0.38529819  0.59291676     0.88000
C270        C  0.06550309  0.36792126  0.65622458     0.88200
C271        C  0.21709467  0.38910692  0.57430136     0.03400
C272        C  0.21773095  0.39493453  0.53849817    -0.12700
C273        C  0.24993163  0.39388173  0.51948707     0.00900
C274        C  0.28179472  0.39009156  0.53859122    -0.11200
C275        C  0.28159603  0.38628716  0.57460118     0.03400
C276        C  0.24916848  0.38492896  0.59209460    -0.10700
H277        H  0.19255153  0.39914001  0.52600467     0.09000
H278        H  0.30726438  0.38858585  0.52608100     0.06600
H279        H  0.24892282  0.38096589  0.61975208     0.06400
C280        C  0.28342588  0.38864237  0.92555370     0.03400
C281        C  0.28259525  0.39397214  0.96144615    -0.12700
C282        C  0.25026354  0.39270599  0.98028693     0.00900
C283        C  0.21854482  0.38899080  0.96101284    -0.11200
C284        C  0.21891899  0.38565768  0.92497496     0.03400
C285        C  0.25141655  0.38468183  0.90756912    -0.10700
H286        H  0.30770595  0.39802301  0.97412244     0.09000
H287        H  0.19304400  0.38717753  0.97342637     0.06600
H288        H  0.25176487  0.38110459  0.87986243     0.06400
C289        C  0.46704165  0.36140914  0.67570225     0.03400
C290        C  0.99921992  0.36537638  0.65780728    -0.12700
C291        C  0.03167779  0.36389655  0.67527462     0.00900
C292        C  0.03189580  0.35994167  0.71126327    -0.11200
C293        C  0.50009171  0.35622008  0.73040629     0.03400
C294        C  0.46778674  0.35550265  0.71150579    -0.10700
H295        H  0.99895492  0.36942271  0.63016229     0.09000
H296        H  0.05738896  0.36130157  0.72373920     0.06600
H297        H  0.44261869  0.35148683  0.72407582     0.06400
C298        C  0.03332145  0.36079708  0.82438260     0.03400
C299        C  0.03260469  0.35511089  0.78856439    -0.12700
C300        C  0.50055229  0.35612776  0.76962840     0.00900
C301        C  0.46878416  0.35987959  0.78884575    -0.11200
C302        C  0.46909025  0.36364197  0.82484836     0.03400
C303        C  0.50156898  0.36489961  0.84227073    -0.10700
H304        H  0.05777364  0.35105758  0.77600664     0.09000
H305        H  0.44327994  0.36142428  0.77641557     0.06600
H306        H  0.50187819  0.36880064  0.86993564     0.06400
O307        O  0.15647948  0.39391867  0.91912569    -0.74100
O308        O  0.06819053  0.38068265  0.87201172    -0.74100
O309        O  0.10601293  0.34346415  0.91921370    -0.73400
O310        O  0.11921837  0.43163551  0.87189798    -0.74300
O311        O  0.14709967  0.40354460  0.82917255    -0.74200
O312        O  0.13392239  0.31506302  0.87666344    -0.74200
O313        O  0.09625124  0.35267908  0.82934081    -0.74100
O314        O  0.18485603  0.36604668  0.87653606    -0.74200
Ni315      Ni  0.11144495  0.38846137  0.89699277     1.25400
Ni316      Ni  0.14155612  0.35830320  0.85141385     1.25400
C317        C  0.18516740  0.38177577  0.90584957     0.88100
C318        C  0.06756941  0.36463831  0.84287738     0.88000
C319        C  0.11820240  0.31477210  0.90598032     0.88000
C320        C  0.13518086  0.43223584  0.84271590     0.88200
C321        C  0.21866866  0.11434220  0.57454962     0.03400
C322        C  0.21842066  0.11046026  0.53854283    -0.12700
C323        C  0.25025317  0.10664146  0.51938902     0.00900
C324        C  0.28248427  0.10568178  0.53836046    -0.11200
C325        C  0.28314242  0.11144004  0.57417938     0.03400
C326        C  0.25110168  0.11564510  0.59200593    -0.10700
H327        H  0.19292578  0.11189257  0.52607521     0.09000
H328        H  0.30766226  0.10154721  0.52583501     0.06600
H329        H  0.25137624  0.11957055  0.61966867     0.06400
C330        C  0.28094631  0.11419802  0.92526535     0.03400
C331        C  0.28133280  0.11069454  0.96126815    -0.12700
C332        C  0.24965695  0.10647108  0.98046821     0.00900
C333        C  0.21732853  0.10493545  0.96161759    -0.11200
C334        C  0.21643101  0.11069326  0.92577700     0.03400
C335        C  0.24843654  0.11512797  0.90785826    -0.10700
H336        H  0.30678785  0.11279159  0.97374373     0.09000
H337        H  0.19228978  0.10038576  0.97428508     0.06600
H338        H  0.24808675  0.11896568  0.88018591     0.06400
C339        C  0.11370592  0.21877249  0.57494482     0.03400
C340        C  0.10946983  0.21845328  0.53898310    -0.12700
C341        C  0.10654424  0.25025909  0.51967071     0.00900
C342        C  0.10642986  0.28260496  0.53854428    -0.11200
C343        C  0.11195955  0.28330087  0.57440432     0.03400
C344        C  0.11567194  0.25124586  0.59231356    -0.10700
H345        H  0.10993549  0.19286184  0.52668764     0.09000
H346        H  0.10315300  0.30785965  0.52599123     0.06600
H347        H  0.11969626  0.25154555  0.61996256     0.06400
C348        C  0.11116192  0.21652136  0.92566602     0.03400
C349        C  0.10537062  0.21737959  0.96148701    -0.12700
C350        C  0.10674668  0.24967602  0.98035401     0.00900
C351        C  0.11074441  0.28139362  0.96112733    -0.11200
C352        C  0.11432021  0.28102222  0.92511407     0.03400
C353        C  0.11545372  0.24851526  0.90772581    -0.10700
H354        H  0.10093495  0.19230386  0.97413125     0.09000
H355        H  0.11258645  0.30688667  0.97357032     0.06600
H356        H  0.11931991  0.24815101  0.88005675     0.06400
C357        C  0.46846971  0.13603550  0.67518149     0.03400
C358        C  0.46818138  0.13974236  0.71118440    -0.12700
C359        C  0.00007598  0.14374201  0.73038432     0.00900
C360        C  0.03237849  0.14471654  0.71151460    -0.11200
C361        C  0.03318838  0.13866227  0.67573895     0.03400
C362        C  0.00115172  0.13439844  0.65783475    -0.10700
H363        H  0.44263559  0.13859669  0.72356190     0.09000
H364        H  0.05748528  0.14904703  0.72412634     0.06600
H365        H  0.00149163  0.13029697  0.63019826     0.06400
C366        C  0.03089638  0.13606193  0.82483910     0.03400
C367        C  0.49845329  0.13492413  0.84240558    -0.12700
C368        C  0.46643612  0.13867271  0.82443603     0.00900
C369        C  0.46717986  0.14397055  0.78855179    -0.11200
C370        C  0.49949255  0.14306588  0.76967281     0.03400
C371        C  0.03130439  0.13980113  0.78882705    -0.10700
H372        H  0.49812953  0.13130595  0.87010796     0.09000
H373        H  0.44198653  0.14766274  0.77595001     0.06600
H374        H  0.05679946  0.13797696  0.77639143     0.06400
C375        C  0.13614836  0.46893448  0.67519507     0.03400
C376        C  0.13967222  0.46856822  0.71120387    -0.12700
C377        C  0.14352890  0.50028479  0.73043496     0.00900
C378        C  0.14460942  0.03243094  0.71153533    -0.11200
C379        C  0.13923915  0.03326486  0.67563942     0.03400
C380        C  0.13496938  0.50143640  0.65780884    -0.10700
H381        H  0.13786614  0.44308291  0.72364073     0.09000
H382        H  0.14886131  0.05749496  0.72426162     0.06600
H383        H  0.13165309  0.00161808  0.62995263     0.06400
C384        C  0.13469487  0.03082426  0.82479175     0.03400
C385        C  0.13457298  0.49847125  0.84219501    -0.12700
C386        C  0.13893966  0.46650956  0.82424135     0.00900
C387        C  0.14485743  0.46739499  0.78844224    -0.11200
C388        C  0.14346558  0.49971603  0.76961062     0.03400
C389        C  0.13807724  0.03122709  0.78875303    -0.10700
H390        H  0.13066160  0.49809137  0.86985877     0.09000
H391        H  0.14939076  0.44234665  0.77580557     0.06600
H392        H  0.13585134  0.05666938  0.77626587     0.06400
O393        O  0.11537199  0.06492703  0.87334768    -0.74100
O394        O  0.10276747  0.15357991  0.92075323    -0.74100
O395        O  0.06479715  0.11625740  0.87336691    -0.74200
O396        O  0.15337925  0.10241516  0.92074417    -0.74300
O397        O  0.18151048  0.13026219  0.87803316    -0.74200
O398        O  0.09337022  0.14387760  0.83075165    -0.74200
O399        O  0.13073666  0.18150654  0.87798472    -0.74100
O400        O  0.14346383  0.09315573  0.83080213    -0.74200
Ni401      Ni  0.10804869  0.10826306  0.89857349     1.25400
Ni402      Ni  0.13831355  0.13821330  0.85297284     1.25400
C403        C  0.13103161  0.06455330  0.84399559     0.88100
C404        C  0.11479450  0.18221522  0.90717777     0.88000
C405        C  0.06460243  0.13193051  0.84401062     0.88000
C406        C  0.18211055  0.11432774  0.90723191     0.88200
O407        O  0.13353617  0.18468467  0.62325267    -0.74100
O408        O  0.14726579  0.09624099  0.67062979    -0.74100
O409        O  0.18464679  0.13389786  0.62306140    -0.74200
O410        O  0.09616859  0.14690119  0.67069969    -0.74300
O411        O  0.06810453  0.11872795  0.62814239    -0.74200
O412        O  0.15620311  0.10608351  0.58048603    -0.74200
O413        O  0.11945887  0.06805396  0.62791894    -0.74100
O414        O  0.10544045  0.15627516  0.58083058    -0.74200
Ni415      Ni  0.14143599  0.14146210  0.64841961     1.25400
Ni416      Ni  0.11127260  0.11124361  0.60292031     1.25400
C417        C  0.11762325  0.18498627  0.59403507     0.88100
C418        C  0.13544531  0.06750779  0.65709837     0.88000
C419        C  0.18490822  0.11825061  0.59369445     0.88000
C420        C  0.06748142  0.13482232  0.65725289     0.88200
O421        O  0.31783743  0.13107381  0.62200017    -0.74100
O422        O  0.40598650  0.14430116  0.66937176    -0.74100
O423        O  0.36876721  0.18209225  0.62212782    -0.74200
O424        O  0.35550667  0.09380491  0.66933051    -0.74300
O425        O  0.38348137  0.06542854  0.62680879    -0.74200
O426        O  0.39672152  0.15399205  0.57945155    -0.74200
O427        O  0.43439274  0.11642282  0.62680737    -0.74100
O428        O  0.34599263  0.10309259  0.57937152    -0.74200
Ni429      Ni  0.36098608  0.13884336  0.64714466     1.25400
Ni430      Ni  0.39117745  0.10870351  0.60160518     1.25400
C431        C  0.31730475  0.11511425  0.59281445     0.88100
C432        C  0.43468887  0.13217159  0.65610411     0.88000
C433        C  0.38474278  0.18268792  0.59295591     0.88000
C434        C  0.36771358  0.06511498  0.65610758     0.88200
C435        C  0.38642415  0.28148640  0.57486884     0.03400
C436        C  0.38484491  0.24901621  0.59230967    -0.12700
C437        C  0.38853545  0.21693054  0.57440142     0.00900
C438        C  0.39388136  0.21759194  0.53852228    -0.11200
C439        C  0.39328972  0.24987155  0.51959067     0.03400
C440        C  0.39023317  0.28172245  0.53884764    -0.10700
H441        H  0.38104523  0.24873986  0.61998901     0.09000
H442        H  0.39734850  0.19235729  0.52596103     0.06600
H443        H  0.38927806  0.30726060  0.52645867     0.06400
C444        C  0.38582282  0.21867760  0.92526258     0.03400
C445        C  0.38480534  0.25114092  0.90780974    -0.12700
C446        C  0.38903529  0.28316037  0.92569863     0.00900
C447        C  0.39482473  0.28237315  0.96152649    -0.11200
C448        C  0.39346018  0.25010191  0.98044122     0.03400
C449        C  0.38933410  0.21836227  0.96128417    -0.10700
H450        H  0.38100195  0.25145424  0.88013134     0.09000
H451        H  0.39926991  0.30746699  0.97414905     0.06600
H452        H  0.38732243  0.19291572  0.97381201     0.06400
C453        C  0.36385355  0.03134038  0.67523802     0.03400
C454        C  0.36581926  0.49922007  0.65781328    -0.12700
C455        C  0.36160782  0.46716863  0.67563519     0.00900
C456        C  0.35601626  0.46785741  0.71148521    -0.11200
C457        C  0.35740261  0.50006795  0.73047580     0.03400
C458        C  0.36022252  0.03165292  0.71126324    -0.10700
H459        H  0.36949915  0.49896013  0.63011811     0.09000
H460        H  0.35165242  0.44273245  0.72403432     0.06600
H461        H  0.36177827  0.05714594  0.72371002     0.06400
C462        C  0.36073019  0.03323734  0.82446739     0.03400
C463        C  0.35520852  0.03252590  0.78860761    -0.12700
C464        C  0.35720649  0.50035241  0.76967232     0.00900
C465        C  0.36114895  0.46852708  0.78876849    -0.11200
C466        C  0.36433927  0.46870554  0.82482290     0.03400
C467        C  0.36502906  0.50110748  0.84239748    -0.10700
H468        H  0.35112106  0.05766929  0.77601754     0.09000
H469        H  0.36328436  0.44312656  0.77621125     0.06600
H470        H  0.36855247  0.50133456  0.87011295     0.06400
O471        O  0.36612353  0.18467154  0.87684574    -0.74100
O472        O  0.35256263  0.09616982  0.82952770    -0.74100
O473        O  0.31502364  0.13388409  0.87688460    -0.74200
O474        O  0.40352922  0.14688066  0.82945465    -0.74300
O475        O  0.43162166  0.11896015  0.87216005    -0.74200
O476        O  0.34337828  0.10587635  0.91940621    -0.74200
O477        O  0.38055189  0.06803836  0.87216449    -0.74100
O478        O  0.39393800  0.15622261  0.91942718    -0.74200
Ni479      Ni  0.35828483  0.14143214  0.85166906     1.25400
Ni480      Ni  0.38840470  0.11123675  0.89722327     1.25400
C481        C  0.38183980  0.18493403  0.90616571     0.88100
C482        C  0.36451524  0.06746513  0.84302069     0.88000
C483        C  0.31470587  0.11812073  0.90617363     0.88000
C484        C  0.43221065  0.13491533  0.84297471     0.88200
O485        O  0.35314104  0.40428698  0.67045286    -0.74100
O486        O  0.36672427  0.31569240  0.62322550    -0.74100
O487        O  0.40406011  0.35352302  0.67066589    -0.74200
O488        O  0.31567458  0.36660084  0.62299191    -0.74300
O489        O  0.34410022  0.39456562  0.58049780    -0.74200
O490        O  0.43226891  0.38133464  0.62797476    -0.74200
O491        O  0.39461192  0.34404518  0.58064396    -0.74100
O492        O  0.38126485  0.43235179  0.62786161    -0.74200
Ni493      Ni  0.35886408  0.35900441  0.64833463     1.25400
Ni494      Ni  0.38909284  0.38911240  0.60281074     1.25400
C495        C  0.36521628  0.43295938  0.65700510     0.88100
C496        C  0.38251167  0.31533553  0.59393548     0.88000
C497        C  0.43280103  0.36538030  0.65716778     0.88000
C498        C  0.31539235  0.38236080  0.59369051     0.88200
O499        O  0.39726207  0.34608982  0.92062298    -0.74100
O500        O  0.38406016  0.43457512  0.87315752    -0.74100
O501        O  0.34640134  0.39695033  0.92055336    -0.74200
O502        O  0.43499026  0.38352738  0.87319340    -0.74300
O503        O  0.40658473  0.35561522  0.83065349    -0.74200
O504        O  0.31833170  0.36904114  0.87783410    -0.74200
O505        O  0.35618943  0.40620346  0.83056526    -0.74100
O506        O  0.36929311  0.31798902  0.87795911    -0.74200
Ni507      Ni  0.39170820  0.39132159  0.89838503     1.25400
Ni508      Ni  0.36156687  0.36118389  0.85281971     1.25400
C509        C  0.38528890  0.31739809  0.90713237     0.88100
C510        C  0.36832686  0.43489592  0.84384609     0.88000
C511        C  0.31770955  0.38499064  0.90702243     0.88000
C512        C  0.43529939  0.36771074  0.84391713     0.88200
O513        O  0.10304545  0.84623224  0.07939493    -0.74100
O514        O  0.11625254  0.93478946  0.12673385    -0.74100
O515        O  0.15379266  0.89723819  0.07933316    -0.74200
O516        O  0.06537211  0.88373998  0.12682947    -0.74300
O517        O  0.09386945  0.85573508  0.16925904    -0.74200
O518        O  0.18202294  0.86944749  0.12202796    -0.74200
O519        O  0.14414888  0.90639713  0.16929759    -0.74100
O520        O  0.13123388  0.81817625  0.12195184    -0.74200
Ni521      Ni  0.10857792  0.89152288  0.10156127     1.25400
Ni522      Ni  0.13885274  0.86140701  0.14706262     1.25400
C523        C  0.11511259  0.81755109  0.09285148     0.88100
C524        C  0.13203060  0.93509101  0.15602072     0.88000
C525        C  0.18254538  0.88545631  0.09287022     0.88000
C526        C  0.06513729  0.86788912  0.15608397     0.88200
C527        C  0.21677361  0.88938096  0.07434709     0.03400
C528        C  0.21748590  0.89508452  0.03851671    -0.12700
C529        C  0.24971709  0.89389194  0.01956326     0.00900
C530        C  0.28153083  0.89001708  0.03873569    -0.11200
C531        C  0.28128332  0.88626218  0.07476715     0.03400
C532        C  0.24882091  0.88521572  0.09222813    -0.10700
H533        H  0.19234135  0.89926917  0.02592718     0.09000
H534        H  0.30699452  0.88831073  0.02622296     0.06600
H535        H  0.24852369  0.88134721  0.11989799     0.06400
C536        C  0.28351120  0.88857985  0.42574068     0.03400
C537        C  0.28269751  0.89450264  0.46153535    -0.12700
C538        C  0.25033993  0.89390622  0.48035858     0.00900
C539        C  0.21859617  0.89054688  0.46104124    -0.11200
C540        C  0.21900204  0.88642138  0.42507991     0.03400
C541        C  0.25151217  0.88460056  0.40778021    -0.10700
H542        H  0.30786163  0.89838633  0.47414437     0.09000
H543        H  0.19301204  0.88957883  0.47336252     0.06600
H544        H  0.25187993  0.88045668  0.38014844     0.06400
C545        C  0.46693068  0.86131533  0.17568378     0.03400
C546        C  0.99891131  0.86498628  0.15781993    -0.12700
C547        C  0.03140368  0.86378625  0.17520243     0.00900
C548        C  0.03175982  0.85999097  0.21119591    -0.11200
C549        C  0.49996912  0.85697223  0.23042251     0.03400
C550        C  0.46772119  0.85548954  0.21149122    -0.10700
H551        H  0.99856147  0.86904114  0.13017583     0.09000
H552        H  0.05723768  0.86181019  0.22366982     0.06600
H553        H  0.44264527  0.85088176  0.22407411     0.06400
C554        C  0.03359754  0.86099044  0.32422578     0.03400
C555        C  0.03276878  0.85483130  0.28846257    -0.12700
C556        C  0.50037967  0.85680644  0.26959099     0.00900
C557        C  0.46861566  0.86079914  0.28872782    -0.11200
C558        C  0.46891164  0.86425754  0.32474086     0.03400
C559        C  0.50135950  0.86522373  0.34222396    -0.10700
H560        H  0.05784614  0.85027594  0.27586527     0.09000
H561        H  0.44316877  0.86277766  0.27621331     0.06600
H562        H  0.50164835  0.86897724  0.36990862     0.06400
O563        O  0.15655442  0.89464154  0.41912032    -0.74100
O564        O  0.06840812  0.88095657  0.37187410    -0.74100
O565        O  0.10630762  0.84395270  0.41929210    -0.73400
O566        O  0.11923962  0.93213523  0.37179706    -0.74300
O567        O  0.14735709  0.90402078  0.32922990    -0.74200
O568        O  0.13421362  0.81553625  0.37675609    -0.74200
O569        O  0.09659633  0.85305964  0.32922299    -0.74100
O570        O  0.18502336  0.86662372  0.37668325    -0.74200
Ni571      Ni  0.11158110  0.88895161  0.39694588     1.25400
Ni572      Ni  0.14182381  0.85878167  0.35146269     1.25400
C573        C  0.18527417  0.88247613  0.40593299     0.88100
C574        C  0.06785961  0.86492686  0.34272197     0.88000
C575        C  0.11854553  0.81525224  0.40610856     0.88000
C576        C  0.13533350  0.93271430  0.34268421     0.88200
C577        C  0.21824909  0.61382426  0.07487900     0.03400
C578        C  0.21810501  0.61037162  0.03884229    -0.12700
C579        C  0.24997601  0.60666141  0.01976040     0.00900
C580        C  0.28216787  0.60547583  0.03877295    -0.11200
C581        C  0.28278494  0.61084256  0.07464682     0.03400
C582        C  0.25067250  0.61484525  0.09245446    -0.10700
H583        H  0.19267378  0.61214892  0.02627292     0.09000
H584        H  0.30735185  0.60142577  0.02622068     0.06600
H585        H  0.25088767  0.61849466  0.12015227     0.06400
C586        C  0.28118691  0.61389089  0.42528917     0.03400
C587        C  0.28157224  0.60989289  0.46126134    -0.12700
C588        C  0.24982017  0.60666293  0.48057859     0.00900
C589        C  0.21745865  0.60608268  0.46175178    -0.11200
C590        C  0.21668477  0.61165807  0.42590393     0.03400
C591        C  0.24869510  0.61553939  0.40794861    -0.10700
H592        H  0.30715537  0.61086328  0.47359113     0.09000
H593        H  0.19226937  0.60237679  0.47437294     0.06600
H594        H  0.24835266  0.61947419  0.38028776     0.06400
C595        C  0.11307108  0.71873124  0.07499150     0.03400
C596        C  0.10895344  0.71837222  0.03903101    -0.12700
C597        C  0.10597145  0.75013492  0.01969084     0.00900
C598        C  0.10555788  0.78249870  0.03852089    -0.11200
C599        C  0.11116116  0.78327564  0.07436797     0.03400
C600        C  0.11489422  0.75123587  0.09233798    -0.10700
H601        H  0.10969312  0.69277704  0.02671974     0.09000
H602        H  0.10206092  0.80771061  0.02588948     0.06600
H603        H  0.11891908  0.75157323  0.11998640     0.06400
C604        C  0.11111751  0.71694605  0.42565364     0.03400
C605        C  0.10516077  0.71775234  0.46145996    -0.12700
C606        C  0.10666213  0.74999503  0.48040592     0.00900
C607        C  0.11101770  0.78176129  0.46129886    -0.11200
C608        C  0.11466493  0.78147109  0.42526583     0.03400
C609        C  0.11568996  0.74897939  0.40782160    -0.10700
H610        H  0.10044801  0.69270589  0.47406239     0.09000
H611        H  0.11305951  0.80717073  0.47388246     0.06600
H612        H  0.11965236  0.74866206  0.38016517     0.06400
C613        C  0.46854620  0.63573992  0.17518236     0.03400
C614        C  0.46825603  0.63958841  0.21118570    -0.12700
C615        C  0.99987607  0.64342533  0.23048122     0.00900
C616        C  0.03208407  0.64470568  0.21152147    -0.11200
C617        C  0.03279709  0.63866622  0.17575760     0.03400
C618        C  0.00078458  0.63419917  0.15793400    -0.10700
H619        H  0.44274856  0.63814967  0.22362883     0.09000
H620        H  0.05719306  0.64925541  0.22405876     0.06600
H621        H  0.00108540  0.63013682  0.13029033     0.06400
C622        C  0.03120915  0.63564662  0.32476035     0.03400
C623        C  0.49857007  0.63442820  0.34222790    -0.12700
C624        C  0.46655673  0.63860924  0.32432082     0.00900
C625        C  0.46732175  0.64439109  0.28850678    -0.11200
C626        C  0.49961231  0.64341328  0.26961653     0.03400
C627        C  0.03143341  0.63938584  0.28875358    -0.10700
H628        H  0.49823558  0.63042879  0.36987964     0.09000
H629        H  0.44217597  0.64851799  0.27591673     0.06600
H630        H  0.05687449  0.63758027  0.27620796     0.06400
C631        C  0.13609286  0.96885556  0.17505948     0.03400
C632        C  0.14000172  0.96855880  0.21103785    -0.12700
C633        C  0.14379312  0.00033806  0.23021164     0.00900
C634        C  0.14353105  0.53256600  0.21156004    -0.11200
C635        C  0.13794524  0.53328706  0.17571795     0.03400
C636        C  0.13482949  0.00129976  0.15760869    -0.10700
H637        H  0.13854463  0.94305528  0.22348627     0.09000
H638        H  0.14718162  0.55778631  0.22412994     0.06600
H639        H  0.12990646  0.50161615  0.13014436     0.06400
C640        C  0.13649873  0.53124997  0.32501944     0.03400
C641        C  0.13520676  0.99897979  0.34203496    -0.12700
C642        C  0.13918615  0.96693582  0.32414777     0.00900
C643        C  0.14483257  0.96765173  0.28832000    -0.11200
C644        C  0.14388603  0.99992558  0.26940408     0.03400
C645        C  0.14027526  0.53154846  0.28900563    -0.10700
H646        H  0.13135977  0.99869079  0.36970840     0.09000
H647        H  0.14881873  0.94247561  0.27574935     0.06600
H648        H  0.13934487  0.55712434  0.27666508     0.06400
O649        O  0.11657208  0.56533036  0.37335578    -0.74100
O650        O  0.10278979  0.65394693  0.42060037    -0.74100
O651        O  0.06534157  0.61606602  0.37317787    -0.74200
O652        O  0.15379736  0.60327266  0.42079228    -0.74300
O653        O  0.18187233  0.63130367  0.37814677    -0.74200
O654        O  0.09370678  0.64391897  0.33057677    -0.74200
O655        O  0.13065679  0.68203916  0.37787552    -0.74100
O656        O  0.14452776  0.59375396  0.33085501    -0.74200
Ni657      Ni  0.10858700  0.60862036  0.39848572     1.25400
Ni658      Ni  0.13870973  0.63878683  0.35292994     1.25400
C659        C  0.13246350  0.56502814  0.34411374     0.88100
C660        C  0.11472535  0.68265600  0.40707699     0.88000
C661        C  0.06502029  0.63172523  0.34382826     0.88000
C662        C  0.18246100  0.61535997  0.40733921     0.88200
O663        O  0.13302422  0.68461871  0.12326408    -0.74100
O664        O  0.14643437  0.59612550  0.17057959    -0.74100
O665        O  0.18407415  0.63364905  0.12315318    -0.74200
O666        O  0.09567048  0.64690819  0.17067254    -0.74300
O667        O  0.06751499  0.61896558  0.12801838    -0.74200
O668        O  0.15567533  0.60573432  0.08060945    -0.74200
O669        O  0.11839853  0.56803770  0.12793896    -0.74100
O670        O  0.10506560  0.65621969  0.08074853    -0.74200
Ni671      Ni  0.14084658  0.64135659  0.14841096     1.25400
Ni672      Ni  0.11064319  0.61120724  0.10288186     1.25400
C673        C  0.11712723  0.68493784  0.09403754     0.88100
C674        C  0.13432971  0.56747007  0.15712921     0.88000
C675        C  0.18439521  0.61784794  0.09387676     0.88000
C676        C  0.06697883  0.63493327  0.15719428     0.88200
O677        O  0.31762004  0.63034051  0.12248824    -0.74100
O678        O  0.40604157  0.64392382  0.16939314    -0.74100
O679        O  0.36829993  0.68157172  0.12229903    -0.74200
O680        O  0.35581650  0.59326313  0.16950562    -0.74300
O681        O  0.38369032  0.56500248  0.12684337    -0.74200
O682        O  0.39623202  0.65361505  0.07952031    -0.74200
O683        O  0.43440172  0.61616680  0.12673236    -0.74100
O684        O  0.34570513  0.60256994  0.07969111    -0.74200
Ni685      Ni  0.36092798  0.63829855  0.14736698     1.25400
Ni686      Ni  0.39104451  0.60831839  0.10168400     1.25400
C687        C  0.31700978  0.61446026  0.09326512     0.88100
C688        C  0.43474190  0.63183676  0.15608107     0.88000
C689        C  0.38405442  0.68222402  0.09301557     0.88000
C690        C  0.36803197  0.56463424  0.15618436     0.88200
C691        C  0.38601415  0.78095660  0.07496415     0.03400
C692        C  0.38374810  0.74848798  0.09229140    -0.12700
C693        C  0.38755690  0.71644335  0.07439187     0.00900
C694        C  0.39311463  0.71713677  0.03853882    -0.11200
C695        C  0.39345018  0.74950895  0.01970057     0.03400
C696        C  0.39075261  0.78129260  0.03906697    -0.10700
H697        H  0.37953020  0.74818871  0.11991287     0.09000
H698        H  0.39609341  0.69183801  0.02597982     0.06600
H699        H  0.39093360  0.80693188  0.02684914     0.06400
C700        C  0.38605670  0.71863257  0.42521748     0.03400
C701        C  0.38527298  0.75106737  0.40769719    -0.12700
C702        C  0.38945266  0.78311859  0.42555949     0.00900
C703        C  0.39497862  0.78242132  0.46141349    -0.11200
C704        C  0.39344288  0.75021884  0.48037224     0.03400
C705        C  0.38938103  0.71841061  0.46126152    -0.10700
H706        H  0.38161609  0.75134042  0.37999952     0.09000
H707        H  0.39930045  0.80752999  0.47401460     0.06600
H708        H  0.38723603  0.69300043  0.47380138     0.06400
C709        C  0.36415672  0.53088181  0.17524329     0.03400
C710        C  0.36547997  0.99849602  0.15763714    -0.12700
C711        C  0.36140385  0.96649321  0.17557739     0.00900
C712        C  0.35581297  0.96724810  0.21141736    -0.11200
C713        C  0.35689391  0.99953164  0.23029619     0.03400
C714        C  0.36026872  0.53124930  0.21120855    -0.10700
H715        H  0.36928799  0.99816535  0.12995899     0.09000
H716        H  0.35176416  0.94210114  0.22402823     0.06600
H717        H  0.36189048  0.55675409  0.22364927     0.06400
C718        C  0.36107564  0.53318818  0.32427100     0.03400
C719        C  0.35524247  0.53240858  0.28845909    -0.12700
C720        C  0.35688795  0.99999412  0.26950453     0.00900
C721        C  0.36033315  0.96822133  0.28878829    -0.11200
C722        C  0.36404573  0.96858392  0.32480578     0.03400
C723        C  0.36554093  0.00108990  0.34214989    -0.10700
H724        H  0.35105649  0.55754755  0.27586139     0.09000
H725        H  0.36165247  0.94267468  0.27640302     0.06600
H726        H  0.36938396  0.00145248  0.36982214     0.06400
O727        O  0.36622110  0.68457280  0.37686202    -0.74100
O728        O  0.35275078  0.59610601  0.32940636    -0.74100
O729        O  0.31519946  0.63365504  0.37689659    -0.74200
O730        O  0.40363534  0.64686957  0.32937965    -0.74300
O731        O  0.43176073  0.61893476  0.37205282    -0.74200
O732        O  0.34361755  0.60559839  0.41934255    -0.74200
O733        O  0.38081575  0.56797532  0.37199532    -0.74100
O734        O  0.39406650  0.65611513  0.41941533    -0.74200
Ni735      Ni  0.35841386  0.64133760  0.35163269     1.25400
Ni736      Ni  0.38859417  0.61112588  0.39713430     1.25400
C737        C  0.38198202  0.68484303  0.40616339     0.88100
C738        C  0.36479826  0.56741269  0.34284190     0.88000
C739        C  0.31492048  0.61780723  0.40615071     0.88000
C740        C  0.43232755  0.63488236  0.34286673     0.88200
O741        O  0.35313385  0.90361147  0.17060456    -0.74100
O742        O  0.36624656  0.81511213  0.12326606    -0.74100
O743        O  0.40395988  0.85276233  0.17060252    -0.74200
O744        O  0.31534218  0.86624071  0.12316885    -0.74300
O745        O  0.34384536  0.89396215  0.08057771    -0.74200
O746        O  0.43202111  0.88075739  0.12793289    -0.74200
O747        O  0.39432748  0.84342016  0.08077348    -0.74100
O748        O  0.38103316  0.93167194  0.12786526    -0.74200
Ni749      Ni  0.35863152  0.85838764  0.14842033     1.25400
Ni750      Ni  0.38882918  0.88846711  0.10285448     1.25400
C751        C  0.36510174  0.93227346  0.15705874     0.88100
C752        C  0.38211974  0.81474994  0.09403036     0.88000
C753        C  0.43264671  0.86481544  0.15711514     0.88000
C754        C  0.31508004  0.88201062  0.09385229     0.88200
O755        O  0.39757902  0.84605592  0.42050615    -0.74100
O756        O  0.38365099  0.93458652  0.37330068    -0.74100
O757        O  0.34645566  0.89663405  0.42075577    -0.74200
O758        O  0.43485812  0.88391417  0.37310490    -0.74300
O759        O  0.40649939  0.85586425  0.33060910    -0.74200
O760        O  0.31834914  0.86868628  0.37808029    -0.74200
O761        O  0.35582798  0.90611075  0.33074826    -0.74100
O762        O  0.36956555  0.81790215  0.37789767    -0.74200
Ni763      Ni  0.39166054  0.89132888  0.39842766     1.25400
Ni764      Ni  0.36152501  0.86110242  0.35290542     1.25400
C765        C  0.38566349  0.81733834  0.40700862     0.88100
C766        C  0.36791680  0.93484192  0.34398432     0.88000
C767        C  0.31776594  0.88465896  0.40725875     0.88000
C768        C  0.43516050  0.86814941  0.34381649     0.88200
O769        O  0.10238116  0.84629471  0.57948159    -0.74100
O770        O  0.11641310  0.93481464  0.62663845    -0.74100
O771        O  0.15363521  0.89675327  0.57924740    -0.74200
O772        O  0.06513947  0.88425677  0.62693536    -0.74300
O773        O  0.09346293  0.85628799  0.66950010    -0.74200
O774        O  0.18165155  0.86874152  0.62193376    -0.74200
O775        O  0.14424070  0.90635000  0.66920425    -0.74100
O776        O  0.13027199  0.81812896  0.62215178    -0.74200
Ni777      Ni  0.10836859  0.89155928  0.60156569     1.25400
Ni778      Ni  0.13843742  0.86133378  0.64712635     1.25400
C779        C  0.11424873  0.81756960  0.59299071     0.88100
C780        C  0.13215262  0.93506658  0.65594250     0.88000
C781        C  0.18229587  0.88466530  0.59273161     0.88000
C782        C  0.06482104  0.86862672  0.65630041     0.88200
C783        C  0.21658521  0.88838226  0.57420922     0.03400
C784        C  0.21740927  0.89435858  0.53841969    -0.12700
C785        C  0.24976784  0.89377967  0.51958647     0.00900
C786        C  0.28151614  0.89025926  0.53887877    -0.11200
C787        C  0.28112587  0.88605694  0.57483175     0.03400
C788        C  0.24860128  0.88423905  0.59213525    -0.10700
H789        H  0.19225005  0.89833096  0.52582640     0.09000
H790        H  0.30709524  0.88928262  0.52654798     0.06600
H791        H  0.24823943  0.88004912  0.61975879     0.06400
C792        C  0.28296634  0.88900106  0.92555936     0.03400
C793        C  0.28225008  0.89489114  0.96136701    -0.12700
C794        C  0.25002149  0.89376834  0.98033264     0.00900
C795        C  0.21821898  0.88977036  0.96117545    -0.11200
C796        C  0.21849600  0.88594501  0.92515299     0.03400
C797        C  0.25094068  0.88476946  0.90770172    -0.10700
H798        H  0.30738612  0.89919872  0.97392906     0.09000
H799        H  0.19274850  0.88809087  0.97368391     0.06600
H800        H  0.25123882  0.88081806  0.88004220     0.06400
C801        C  0.46655717  0.86093386  0.67575657     0.03400
C802        C  0.99861237  0.86557141  0.65793576    -0.12700
C803        C  0.03106303  0.86484102  0.67542770     0.00900
C804        C  0.03133214  0.86149657  0.71146029    -0.11200
C805        C  0.49960378  0.85607049  0.73047867     0.03400
C806        C  0.46729774  0.85531824  0.71159345    -0.10700
H807        H  0.99831229  0.86930411  0.63024893     0.09000
H808        H  0.05672690  0.86382994  0.72405111     0.06600
H809        H  0.44211125  0.85150279  0.72416917     0.06400
C810        C  0.03298710  0.86087033  0.82437397     0.03400
C811        C  0.03213010  0.85505238  0.78857962    -0.12700
C812        C  0.50005270  0.85608470  0.76970889     0.00900
C813        C  0.46824998  0.85954148  0.78894215    -0.11200
C814        C  0.46853031  0.86354901  0.82492112     0.03400
C815        C  0.50099745  0.86497659  0.84234594    -0.10700
H816        H  0.05713234  0.85016156  0.77593000     0.09000
H817        H  0.44271834  0.86069192  0.77654921     0.06600
H818        H  0.50128816  0.86892687  0.87000499     0.06400
O819        O  0.15601693  0.89384606  0.91927240    -0.74100
O820        O  0.06791590  0.88043610  0.87199341    -0.74100
O821        O  0.10567334  0.84328965  0.91922496    -0.73400
O822        O  0.11881017  0.93144873  0.87191766    -0.74300
O823        O  0.14671849  0.90340354  0.82918205    -0.74200
O824        O  0.13373832  0.81492046  0.87675579    -0.74200
O825        O  0.09596214  0.85240821  0.82933177    -0.74100
O826        O  0.18452028  0.86607592  0.87670499    -0.74200
Ni827      Ni  0.11107874  0.88827689  0.89702106     1.25400
Ni828      Ni  0.14127643  0.85816073  0.85147500     1.25400
C829        C  0.18475451  0.88181528  0.90603156     0.88100
C830        C  0.06728112  0.86441827  0.84285660     0.88000
C831        C  0.11793557  0.81461513  0.90603458     0.88000
C832        C  0.13472885  0.93207456  0.84271437     0.88200
C833        C  0.21908613  0.61418327  0.57507764     0.03400
C834        C  0.21869489  0.61033683  0.53909422    -0.12700
C835        C  0.25041226  0.60671315  0.51980006     0.00900
C836        C  0.28275398  0.60583563  0.53864265    -0.11200
C837        C  0.28356179  0.61141704  0.57449076     0.03400
C838        C  0.25157188  0.61551944  0.59244774    -0.10700
H839        H  0.19313804  0.61166466  0.52674395     0.09000
H840        H  0.30791565  0.60193903  0.52602620     0.06600
H841        H  0.25192212  0.61940997  0.62011474     0.06400
C842        C  0.28139097  0.61428614  0.92546591     0.03400
C843        C  0.28157153  0.61080364  0.96149205    -0.12700
C844        C  0.24974672  0.60669763  0.98056340     0.00900
C845        C  0.21757543  0.60518707  0.96154217    -0.11200
C846        C  0.21691448  0.61074872  0.92569947     0.03400
C847        C  0.24898125  0.61507751  0.90789460    -0.10700
H848        H  0.30699153  0.61279771  0.97405148     0.09000
H849        H  0.19243678  0.60080244  0.97407500     0.06600
H850        H  0.24874779  0.61878424  0.88020225     0.06400
C851        C  0.11436747  0.71888416  0.57475492     0.03400
C852        C  0.11090461  0.71859918  0.53871668    -0.12700
C853        C  0.10648049  0.75034620  0.51960557     0.00900
C854        C  0.10465207  0.78255590  0.53857307    -0.11200
C855        C  0.11051776  0.78333852  0.57440448     0.03400
C856        C  0.11512189  0.75133161  0.59223537    -0.10700
H857        H  0.11320555  0.69320859  0.52614782     0.09000
H858        H  0.09989527  0.80758848  0.52595296     0.06600
H859        H  0.11899537  0.75163744  0.61990542     0.06400
C860        C  0.11167881  0.71638723  0.92580384     0.03400
C861        C  0.10579298  0.71718244  0.96160722    -0.12700
C862        C  0.10627232  0.74954046  0.98044896     0.00900
C863        C  0.10980859  0.78127558  0.96114090    -0.11200
C864        C  0.11405107  0.78087842  0.92518784     0.03400
C865        C  0.11576689  0.74838203  0.90786675    -0.10700
H866        H  0.10196626  0.69199068  0.97418239     0.09000
H867        H  0.11071362  0.80686625  0.97345711     0.06600
H868        H  0.11987777  0.74802502  0.88023043     0.06400
C869        C  0.46908198  0.63666182  0.67499389     0.03400
C870        C  0.46870331  0.64029173  0.71100820    -0.12700
C871        C  0.00048664  0.64342414  0.73047785     0.00900
C872        C  0.03275191  0.64453593  0.71154619    -0.11200
C873        C  0.03348894  0.63889619  0.67569960     0.03400
C874        C  0.00145008  0.63473684  0.65782502    -0.10700
H875        H  0.44314652  0.63896243  0.72335568     0.09000
H876        H  0.05789553  0.64869590  0.72413970     0.06600
H877        H  0.00174891  0.63091553  0.63014892     0.06400
C878        C  0.03151924  0.63600929  0.82492197     0.03400
C879        C  0.49879337  0.63408015  0.84215902    -0.12700
C880        C  0.46678510  0.63803141  0.82423059     0.00900
C881        C  0.46753767  0.64386616  0.78841547    -0.11200
C882        C  0.49988324  0.64337872  0.76956266     0.03400
C883        C  0.03184592  0.63966857  0.78890124    -0.10700
H884        H  0.49845900  0.63002801  0.86980423     0.09000
H885        H  0.44234949  0.64770388  0.77583326     0.06600
H886        H  0.05733773  0.63798218  0.77644013     0.06400
C887        C  0.13606872  0.96878572  0.67507309     0.03400
C888        C  0.13916071  0.96841095  0.71112152    -0.12700
C889        C  0.14299550  0.00012007  0.73037174     0.00900
C890        C  0.14473161  0.53261414  0.71160700    -0.11200
C891        C  0.13905973  0.53344522  0.67577276     0.03400
C892        C  0.13521701  0.00126944  0.65766156    -0.10700
H893        H  0.13698952  0.94295239  0.72356994     0.09000
H894        H  0.14896420  0.55770561  0.72426188     0.06600
H895        H  0.13118396  0.50178504  0.63012888     0.06400
C896        C  0.13568133  0.53097103  0.82483282     0.03400
C897        C  0.13387526  0.99831937  0.84216949    -0.12700
C898        C  0.13830732  0.96635933  0.82420752     0.00900
C899        C  0.14414196  0.96725867  0.78839342    -0.11200
C900        C  0.14256800  0.99956565  0.76955086     0.03400
C901        C  0.13930976  0.53139305  0.78883696    -0.10700
H902        H  0.13015384  0.99793819  0.86985783     0.09000
H903        H  0.14883290  0.94223736  0.77574806     0.06600
H904        H  0.13741255  0.55687960  0.77641453     0.06400
O905        O  0.11618375  0.56498850  0.87330595    -0.74100
O906        O  0.10333682  0.65349323  0.92074575    -0.74100
O907        O  0.06548482  0.61615565  0.87332695    -0.74200
O908        O  0.15398735  0.60248263  0.92063833    -0.74300
O909        O  0.18214434  0.63031679  0.87792132    -0.74200
O910        O  0.09396878  0.64405351  0.83081896    -0.74200
O911        O  0.13142106  0.68152855  0.87810746    -0.74100
O912        O  0.14411209  0.59334002  0.83073043    -0.74200
Ni913      Ni  0.10871396  0.60824962  0.89851882     1.25400
Ni914      Ni  0.13894645  0.63833408  0.85296349     1.25400
C915        C  0.13185734  0.56468517  0.84397161     0.88100
C916        C  0.11543326  0.68214566  0.90727642     0.88000
C917        C  0.06524497  0.63195530  0.84404204     0.88000
C918        C  0.18270310  0.61437416  0.90710494     0.88200
O919        O  0.13405458  0.68489536  0.62323399    -0.74100
O920        O  0.14725406  0.59641818  0.67079050    -0.74100
O921        O  0.18501240  0.63394939  0.62344000    -0.74200
O922        O  0.09639976  0.64725773  0.67064052    -0.74300
O923        O  0.06836051  0.61929680  0.62793249    -0.74200
O924        O  0.15667292  0.60594119  0.58091134    -0.74200
O925        O  0.11934028  0.56830349  0.62809891    -0.74100
O926        O  0.10627621  0.65642357  0.58064754    -0.74200
Ni927      Ni  0.14170531  0.64166994  0.64853966     1.25400
Ni928      Ni  0.11163198  0.61146472  0.60296779     1.25400
C929        C  0.11839973  0.68513937  0.59387439     0.88100
C930        C  0.13530741  0.56771647  0.65727477     0.88000
C931        C  0.18534298  0.61813065  0.59417424     0.88000
C932        C  0.06773099  0.63525007  0.65712118     0.88200
O933        O  0.31842121  0.63107814  0.62217917    -0.74100
O934        O  0.40665117  0.64474988  0.66917017    -0.74100
O935        O  0.36921691  0.68217161  0.62195696    -0.74200
O936        O  0.35643888  0.59407076  0.66945555    -0.74300
O937        O  0.38433478  0.56569877  0.62687509    -0.74200
O938        O  0.39717222  0.65408496  0.57926552    -0.74200
O939        O  0.43506967  0.61684591  0.62662383    -0.74100
O940        O  0.34649262  0.60313273  0.57947723    -0.74200
Ni941      Ni  0.36164391  0.63904050  0.64712142     1.25400
Ni942      Ni  0.39179347  0.60889915  0.60154718     1.25400
C943        C  0.31781420  0.61511264  0.59300473     0.88100
C944        C  0.43535479  0.63267496  0.65588823     0.88000
C945        C  0.38518226  0.68275107  0.59278360     0.88000
C946        C  0.36869040  0.56540534  0.65623163     0.88200
C947        C  0.38563744  0.78140756  0.57473412     0.03400
C948        C  0.38461749  0.74895270  0.59216974    -0.12700
C949        C  0.38888663  0.71695699  0.57427075     0.00900
C950        C  0.39470423  0.71770467  0.53847690    -0.11200
C951        C  0.39330522  0.74992637  0.51955367     0.03400
C952        C  0.38917796  0.78170908  0.53869367    -0.10700
H953        H  0.38081407  0.74862609  0.61984936     0.09000
H954        H  0.39921392  0.69261798  0.52590216     0.06600
H955        H  0.38723502  0.80714754  0.52617163     0.06400
C956        C  0.38720342  0.71863822  0.92508276     0.03400
C957        C  0.38507088  0.75111042  0.90772734    -0.12700
C958        C  0.38842550  0.78317769  0.92568306     0.00900
C959        C  0.39359940  0.78250562  0.96158746    -0.11200
C960        C  0.39382282  0.75013039  0.98042495     0.03400
C961        C  0.39157865  0.71832895  0.96102414    -0.10700
H962        H  0.38108911  0.75140536  0.88007279     0.09000
H963        H  0.39622712  0.80782254  0.97418854     0.06600
H964        H  0.39166383  0.69269402  0.97325080     0.06400
C965        C  0.36488217  0.53164331  0.67533906     0.03400
C966        C  0.36515275  0.99885614  0.65782734    -0.12700
C967        C  0.36115732  0.96682539  0.67575488     0.00900
C968        C  0.35551070  0.96758088  0.71158000    -0.11200
C969        C  0.35652437  0.99986604  0.73047114     0.03400
C970        C  0.36145833  0.53188105  0.71138225    -0.10700
H971        H  0.36895179  0.99853050  0.63014848     0.09000
H972        H  0.35141516  0.94243546  0.72415958     0.06600
H973        H  0.36340737  0.55730309  0.72393406     0.06400
C974        C  0.36090723  0.53318009  0.82456941     0.03400
C975        C  0.35562528  0.53254259  0.78867326    -0.12700
C976        C  0.35643407  0.00027201  0.76967618     0.00900
C977        C  0.36022361  0.96848234  0.78884923    -0.11200
C978        C  0.36370361  0.96873687  0.82486999     0.03400
C979        C  0.36475345  0.00118526  0.84235787    -0.10700
H980        H  0.35142258  0.55768153  0.77609434     0.09000
H981        H  0.36201064  0.94301617  0.77638692     0.06600
H982        H  0.36846172  0.00146679  0.87004891     0.06400
O983        O  0.36707754  0.68458102  0.87684895    -0.74100
O984        O  0.35268002  0.59609230  0.82974062    -0.74100
O985        O  0.31556012  0.63409107  0.87718448    -0.74200
O986        O  0.40393576  0.64644124  0.82938795    -0.74300
O987        O  0.43201202  0.61839670  0.87202613    -0.74200
O988        O  0.34387037  0.60599796  0.91967785    -0.74200
O989        O  0.38062106  0.56786612  0.87235064    -0.74100
O990        O  0.39488688  0.65604742  0.91936616    -0.74200
Ni991      Ni  0.35877637  0.64134169  0.85179787     1.25400
Ni992      Ni  0.38886593  0.61103946  0.89729910     1.25400
C993        C  0.38302004  0.68483573  0.90605652     0.88100
C994        C  0.36458329  0.56735669  0.84320841     0.88000
C995        C  0.31520988  0.61828564  0.90645688     0.88000
C996        C  0.43258747  0.63431596  0.84281808     0.88200
O997        O  0.35278866  0.90390770  0.67068028    -0.74100
O998        O  0.36608399  0.81538861  0.62325960    -0.74100
O999        O  0.40358188  0.85300079  0.67076500    -0.74200
O1000       O  0.31516191  0.86634265  0.62324321    -0.74300
O1001       O  0.34359232  0.89444124  0.58083444    -0.74200
O1002       O  0.43179318  0.88076028  0.62803896    -0.74200
O1003       O  0.39389136  0.84383106  0.58067206    -0.74100
O1004       O  0.38102133  0.93195647  0.62814307    -0.74200
Ni1005     Ni  0.35837132  0.85863141  0.64850143     1.25400
Ni1006     Ni  0.38861048  0.88877976  0.60299851     1.25400
C1007       C  0.36491115  0.93257418  0.65724171     0.88100
C1008       C  0.38173514  0.81513322  0.59389694     0.88000
C1009       C  0.43232190  0.86482216  0.65723407     0.88000
C1010       C  0.31488445  0.88218465  0.59398912     0.88200
O1011       O  0.39666270  0.84606685  0.92052407    -0.74100
O1012       O  0.38338497  0.93461562  0.87322665    -0.74100
O1013       O  0.34589684  0.89693854  0.92056364    -0.74200
O1014       O  0.43438662  0.88361542  0.87316241    -0.74300
O1015       O  0.40600330  0.85551764  0.83072492    -0.74200
O1016       O  0.31772065  0.86918651  0.87781115    -0.74200
O1017       O  0.35566204  0.90621640  0.83056358    -0.74100
O1018       O  0.36850998  0.81797294  0.87796390    -0.74200
Ni1019     Ni  0.39111698  0.89133432  0.89836847     1.25400
Ni1020     Ni  0.36094225  0.86119438  0.85282230     1.25400
C1021       C  0.38455045  0.81739047  0.90710651     0.88100
C1022       C  0.36769476  0.93492924  0.84389744     0.88000
C1023       C  0.31717462  0.88512600  0.90701039     0.88000
C1024       C  0.43471560  0.86767378  0.84395388     0.88200
O1025       O  0.60285472  0.34629493  0.07938764    -0.74100
O1026       O  0.61589361  0.43478612  0.12683516    -0.74100
O1027       O  0.65358523  0.39724663  0.07942371    -0.74200
O1028       O  0.56504270  0.38379727  0.12675623    -0.74300
O1029       O  0.59343146  0.35592323  0.16933442    -0.74200
O1030       O  0.68169148  0.36935400  0.12212769    -0.74200
O1031       O  0.64379615  0.40642296  0.16941374    -0.74100
O1032       O  0.63082362  0.31825980  0.12209685    -0.74200
Ni1033     Ni  0.60831377  0.39155721  0.10159025     1.25400
Ni1034     Ni  0.63846896  0.36145584  0.14717512     1.25400
C1035       C  0.61489324  0.31763904  0.09290329     0.88100
C1036       C  0.63157692  0.43508597  0.15617161     0.88000
C1037       C  0.68228956  0.38532707  0.09294073     0.88000
C1038       C  0.56473846  0.36809029  0.15608050     0.88200
C1039       C  0.71655393  0.38908034  0.07438685     0.03400
C1040       C  0.71739030  0.39520217  0.03859646    -0.12700
C1041       C  0.74968416  0.39386135  0.01969222     0.00900
C1042       C  0.78137886  0.38953153  0.03883156    -0.11200
C1043       C  0.78102769  0.38562345  0.07479453     0.03400
C1044       C  0.74855890  0.38449272  0.09223177    -0.10700
H1045       H  0.69233339  0.39986214  0.02598430     0.09000
H1046       H  0.80683214  0.38763037  0.02631992     0.06600
H1047       H  0.74824153  0.38038054  0.11986819     0.06400
C1048       C  0.78278325  0.38845474  0.42539697     0.03400
C1049       C  0.78221714  0.39376279  0.46126968    -0.12700
C1050       C  0.75003099  0.39280087  0.48028259     0.00900
C1051       C  0.71814606  0.38928117  0.46115321    -0.11200
C1052       C  0.71830748  0.38580193  0.42511344     0.03400
C1053       C  0.75070187  0.38461246  0.40756507    -0.10700
H1054       H  0.80744459  0.39754995  0.47377844     0.09000
H1055       H  0.69266984  0.38777690  0.47363228     0.06600
H1056       H  0.75092185  0.38100053  0.37986026     0.06400
C1057       C  0.96650855  0.36106516  0.17547608     0.03400
C1058       C  0.49849277  0.36533120  0.15774242    -0.12700
C1059       C  0.53096471  0.36417136  0.17517579     0.00900
C1060       C  0.53126209  0.36049888  0.21118413    -0.11200
C1061       C  0.99950130  0.35670336  0.23025729     0.03400
C1062       C  0.96722690  0.35566077  0.21134370    -0.10700
H1063       H  0.49817265  0.36930791  0.13008751     0.09000
H1064       H  0.55671643  0.36237236  0.22369238     0.06600
H1065       H  0.94205197  0.35175210  0.22392842     0.06400
C1066       C  0.53282386  0.36123149  0.32423620     0.03400
C1067       C  0.53210589  0.35525440  0.28844731    -0.12700
C1068       C  0.99990947  0.35682915  0.26948574     0.00900
C1069       C  0.96809100  0.36037076  0.28867527    -0.11200
C1070       C  0.96832915  0.36407230  0.32468513     0.03400
C1071       C  0.00077748  0.36541721  0.34216330    -0.10700
H1072       H  0.55722936  0.35086876  0.27588308     0.09000
H1073       H  0.94258947  0.36176139  0.27622861     0.06600
H1074       H  0.00103843  0.36918489  0.36984692     0.06400
O1075       O  0.65581710  0.39414722  0.41933524    -0.74100
O1076       O  0.56759494  0.38095953  0.37200586    -0.74100
O1077       O  0.60530851  0.34367646  0.41926474    -0.73400
O1078       O  0.61856464  0.43194106  0.37209573    -0.74300
O1079       O  0.64653891  0.40388120  0.32940538    -0.74200
O1080       O  0.63317692  0.31531049  0.37667076    -0.74200
O1081       O  0.59572138  0.35307089  0.32930547    -0.74100
O1082       O  0.68416663  0.36625210  0.37674512    -0.74200
Ni1083     Ni  0.61078923  0.38871402  0.39711336     1.25400
Ni1084     Ni  0.64093355  0.35860293  0.35152688     1.25400
C1085       C  0.68449661  0.38197221  0.40606164     0.88100
C1086       C  0.56702883  0.36501414  0.34280975     0.88000
C1087       C  0.61741566  0.31498070  0.40597230     0.88000
C1088       C  0.63454373  0.43255225  0.34292545     0.88200
C1089       C  0.71897336  0.11414867  0.07495486     0.03400
C1090       C  0.71854332  0.11092947  0.03889433    -0.12700
C1091       C  0.75023039  0.10701797  0.01958970     0.00900
C1092       C  0.78257117  0.10547764  0.03838641    -0.11200
C1093       C  0.78346652  0.11071662  0.07428554     0.03400
C1094       C  0.75149543  0.11478288  0.09232310    -0.10700
H1095       H  0.69306326  0.11303560  0.02647044     0.09000
H1096       H  0.80763611  0.10129416  0.02565390     0.06600
H1097       H  0.75189369  0.11826011  0.12004157     0.06400
C1098       C  0.78141687  0.11365155  0.42528792     0.03400
C1099       C  0.78166005  0.10987686  0.46129554    -0.12700
C1100       C  0.74983531  0.10613144  0.48044702     0.00900
C1101       C  0.71760152  0.10508661  0.46150452    -0.11200
C1102       C  0.71689808  0.11095693  0.42571865     0.03400
C1103       C  0.74895261  0.11504915  0.40784468    -0.10700
H1104       H  0.80714207  0.11140128  0.47378133     0.09000
H1105       H  0.69244513  0.10089037  0.47404863     0.06600
H1106       H  0.74865947  0.11901760  0.38018837     0.06400
C1107       C  0.61428641  0.21892627  0.07494311     0.03400
C1108       C  0.61081700  0.21853635  0.03891552    -0.12700
C1109       C  0.60701896  0.25026765  0.01966372     0.00900
C1110       C  0.60578433  0.28257962  0.03851401    -0.11200
C1111       C  0.61128788  0.28339643  0.07436685     0.03400
C1112       C  0.61534688  0.25141294  0.09233248    -0.10700
H1113       H  0.61261575  0.19303079  0.02648278     0.09000
H1114       H  0.60161497  0.30769395  0.02586631     0.06600
H1115       H  0.61902911  0.25177160  0.12002680     0.06400
C1116       C  0.61085734  0.21667020  0.42550223     0.03400
C1117       C  0.60530244  0.21738399  0.46135378    -0.12700
C1118       C  0.60631152  0.24964781  0.48028275     0.00900
C1119       C  0.60984969  0.28145550  0.46107055    -0.11200
C1120       C  0.61345633  0.28118222  0.42503996     0.03400
C1121       C  0.61472635  0.24872135  0.40758614    -0.10700
H1122       H  0.60138216  0.19221465  0.47393436     0.09000
H1123       H  0.61134179  0.30694932  0.47351215     0.06600
H1124       H  0.61849967  0.24842499  0.37990263     0.06400
C1125       C  0.96895681  0.13608899  0.17503487     0.03400
C1126       C  0.96861039  0.14006512  0.21103407    -0.12700
C1127       C  0.50046588  0.14398155  0.23050665     0.00900
C1128       C  0.53271446  0.14553358  0.21162186    -0.11200
C1129       C  0.53357490  0.13937816  0.17588331     0.03400
C1130       C  0.50159950  0.13470725  0.15798656    -0.10700
H1131       H  0.94305599  0.13896830  0.22341547     0.09000
H1132       H  0.55774876  0.15033910  0.22421399     0.06600
H1133       H  0.50197454  0.13063347  0.13034644     0.06400
C1134       C  0.53153943  0.13587381  0.32475441     0.03400
C1135       C  0.99913387  0.13436740  0.34217181    -0.12700
C1136       C  0.96703586  0.13827240  0.32434451     0.00900
C1137       C  0.96769196  0.14394233  0.28849536    -0.11200
C1138       C  0.99997417  0.14343285  0.26954441     0.03400
C1139       C  0.53185560  0.13985994  0.28878720    -0.10700
H1140       H  0.99888932  0.13034989  0.36982130     0.09000
H1141       H  0.94246514  0.14764197  0.27594415     0.06600
H1142       H  0.55731503  0.13810238  0.27627002     0.06400
C1143       C  0.63540845  0.46882443  0.17528958     0.03400
C1144       C  0.63931486  0.46850782  0.21127144    -0.12700
C1145       C  0.64298479  0.50028967  0.23047389     0.00900
C1146       C  0.64538323  0.03278248  0.21182067    -0.11200
C1147       C  0.63953655  0.03367556  0.17601740     0.03400
C1148       C  0.63397575  0.50127096  0.15786951    -0.10700
H1149       H  0.63796681  0.44298222  0.22369594     0.09000
H1150       H  0.64956804  0.05788617  0.22447005     0.06600
H1151       H  0.63139163  0.00210746  0.13035859     0.06400
C1152       C  0.63663345  0.03110405  0.32506361     0.03400
C1153       C  0.63417367  0.49879875  0.34231314    -0.12700
C1154       C  0.63827779  0.46678834  0.32439984     0.00900
C1155       C  0.64399377  0.46755309  0.28857796    -0.11200
C1156       C  0.64299840  0.49984305  0.26968310     0.03400
C1157       C  0.64057727  0.03150119  0.28909665    -0.10700
H1158       H  0.63027597  0.49847206  0.36997947     0.09000
H1159       H  0.64808984  0.44240025  0.27599238     0.06600
H1160       H  0.63920759  0.05704519  0.27672225     0.06400
O1161       O  0.61661885  0.06515676  0.37333208    -0.74100
O1162       O  0.60298535  0.15370163  0.42053476    -0.74100
O1163       O  0.56555278  0.11602662  0.37312118    -0.74200
O1164       O  0.65395999  0.10292195  0.42069691    -0.74300
O1165       O  0.68211156  0.13098502  0.37811709    -0.74200
O1166       O  0.59401936  0.14391738  0.33060107    -0.74200
O1167       O  0.63094083  0.18186119  0.37789490    -0.74100
O1168       O  0.64466496  0.09357943  0.33087991    -0.74200
Ni1169     Ni  0.60874767  0.10842704  0.39843198     1.25400
Ni1170     Ni  0.63896747  0.13862059  0.35294101     1.25400
C1171       C  0.63254285  0.06486275  0.34412413     0.88100
C1172       C  0.61484329  0.18242889  0.40700807     0.88000
C1173       C  0.56529974  0.13178381  0.34382292     0.88000
C1174       C  0.68267001  0.11488812  0.40722334     0.88200
O1175       O  0.63406789  0.18504119  0.12338997    -0.74100
O1176       O  0.64748608  0.09669718  0.17106257    -0.74100
O1177       O  0.68506425  0.13407058  0.12343439    -0.74200
O1178       O  0.59656228  0.14757577  0.17093885    -0.74300
O1179       O  0.56846791  0.11942584  0.12838156    -0.74200
O1180       O  0.65653589  0.10610289  0.08099940    -0.74200
O1181       O  0.61950492  0.06850464  0.12846212    -0.74100
O1182       O  0.60603576  0.15651862  0.08098749    -0.74200
Ni1183     Ni  0.64183100  0.14188900  0.14872362     1.25400
Ni1184     Ni  0.61160447  0.11160381  0.10329570     1.25400
C1185       C  0.61823694  0.18524211  0.09412693     0.88100
C1186       C  0.63558194  0.06796118  0.15758217     0.88000
C1187       C  0.68527660  0.11823667  0.09415914     0.88000
C1188       C  0.56786356  0.13557113  0.15745520     0.88200
O1189       O  0.81837236  0.13038741  0.12192672    -0.74100
O1190       O  0.90651861  0.14421912  0.16906792    -0.74100
O1191       O  0.86914687  0.18157850  0.12167588    -0.74200
O1192       O  0.85633308  0.09354536  0.16931784    -0.74300
O1193       O  0.88424877  0.06509517  0.12680409    -0.74200
O1194       O  0.89721411  0.15347720  0.07907117    -0.74200
O1195       O  0.93499511  0.11622120  0.12662225    -0.74100
O1196       O  0.84647779  0.10245907  0.07924042    -0.74200
Ni1197     Ni  0.86155658  0.13845967  0.14691165     1.25400
Ni1198     Ni  0.89176905  0.10827147  0.10141765     1.25400
C1199       C  0.81776832  0.11438192  0.09277132     0.88100
C1200       C  0.93523851  0.13207669  0.15588246     0.88000
C1201       C  0.88516892  0.18216385  0.09252659     0.88000
C1202       C  0.86858181  0.06485468  0.15615668     0.88200
C1203       C  0.88612740  0.28092046  0.07465351     0.03400
C1204       C  0.88478637  0.24841035  0.09199193    -0.12700
C1205       C  0.88893824  0.21642583  0.07402309     0.00900
C1206       C  0.89470416  0.21727655  0.03820496    -0.11200
C1207       C  0.89373761  0.24963490  0.01939284     0.03400
C1208       C  0.89002711  0.28133693  0.03868474    -0.10700
H1209       H  0.88081610  0.24803506  0.11964713     0.09000
H1210       H  0.89879558  0.19214932  0.02556413     0.06600
H1211       H  0.88859930  0.30689068  0.02632788     0.06400
C1212       C  0.88560669  0.21858971  0.42511829     0.03400
C1213       C  0.88411324  0.25103614  0.40763611    -0.12700
C1214       C  0.88802486  0.28312599  0.42548370     0.00900
C1215       C  0.89362246  0.28245067  0.46134367    -0.11200
C1216       C  0.89284127  0.25017229  0.48030277     0.03400
C1217       C  0.88924899  0.21835974  0.46112986    -0.10700
H1218       H  0.88030878  0.25128313  0.37995734     0.09000
H1219       H  0.89750324  0.30764863  0.47387809     0.06600
H1220       H  0.88787037  0.19286626  0.47357897     0.06400
C1221       C  0.86473039  0.03113764  0.17534442     0.03400
C1222       C  0.86488750  0.49825940  0.15751092    -0.12700
C1223       C  0.86084394  0.46626885  0.17547679     0.00900
C1224       C  0.85525433  0.46707098  0.21132601    -0.11200
C1225       C  0.85600549  0.49943594  0.23015680     0.03400
C1226       C  0.86087923  0.03145018  0.21135355    -0.10700
H1227       H  0.86881862  0.49791361  0.12984895     0.09000
H1228       H  0.85147785  0.44188843  0.22393719     0.06600
H1229       H  0.86239353  0.05695664  0.22379817     0.06400
C1230       C  0.86155169  0.03287848  0.32456349     0.03400
C1231       C  0.85600478  0.03223324  0.28870937    -0.12700
C1232       C  0.85602333  0.50009049  0.26938478     0.00900
C1233       C  0.85916492  0.46834439  0.28870958    -0.11200
C1234       C  0.86330697  0.46871461  0.32466067     0.03400
C1235       C  0.86504949  0.50120911  0.34200479    -0.10700
H1236       H  0.85219358  0.05743500  0.27613342     0.09000
H1237       H  0.85996181  0.44275419  0.27638980     0.06600
H1238       H  0.86904044  0.50153699  0.36965733     0.06400
O1239       O  0.86639638  0.18430524  0.37671663    -0.74100
O1240       O  0.85329873  0.09570338  0.32962185    -0.74100
O1241       O  0.81554948  0.13328513  0.37688353    -0.74200
O1242       O  0.90410373  0.14647921  0.32948766    -0.74300
O1243       O  0.93224931  0.11873590  0.37225863    -0.74200
O1244       O  0.84393658  0.10548929  0.41950560    -0.74200
O1245       O  0.88130094  0.06768804  0.37232490    -0.74100
O1246       O  0.89427803  0.15611640  0.41941090    -0.74200
Ni1247     Ni  0.85882115  0.14096517  0.35167551     1.25400
Ni1248     Ni  0.88898528  0.11098178  0.39732313     1.25400
C1249       C  0.88201398  0.18473880  0.40607304     0.88100
C1250       C  0.86531859  0.06706179  0.34314582     0.88000
C1251       C  0.81522932  0.11758717  0.40621655     0.88000
C1252       C  0.93281591  0.13455113  0.34299341     0.88200
O1253       O  0.85260759  0.40334120  0.17040902    -0.74100
O1254       O  0.86628536  0.31486801  0.12306881    -0.74100
O1255       O  0.90362294  0.35271500  0.17045156    -0.74200
O1256       O  0.81511489  0.36562389  0.12303373    -0.74300
O1257       O  0.84344890  0.39377493  0.08058562    -0.74200
O1258       O  0.93168972  0.38061754  0.12771710    -0.74200
O1259       O  0.89400370  0.34339772  0.08048195    -0.74100
O1260       O  0.88065928  0.43148464  0.12781434    -0.74200
Ni1261     Ni  0.85837526  0.35809631  0.14824809     1.25400
Ni1262     Ni  0.88847201  0.38834895  0.10271115     1.25400
C1263       C  0.86462248  0.43203906  0.15695216     0.88100
C1264       C  0.88202398  0.31464566  0.09376067     0.88000
C1265       C  0.93228911  0.36470880  0.15692038     0.88000
C1266       C  0.81478580  0.38151876  0.09381117     0.88200
O1267       O  0.89637126  0.34604801  0.42032881    -0.74100
O1268       O  0.88310485  0.43462121  0.37300899    -0.74100
O1269       O  0.84559332  0.39686171  0.42027318    -0.74200
O1270       O  0.93413486  0.38369756  0.37302677    -0.74300
O1271       O  0.90582198  0.35579680  0.33042134    -0.74200
O1272       O  0.81751375  0.36890995  0.37757458    -0.74200
O1273       O  0.85523442  0.40622513  0.33043774    -0.74100
O1274       O  0.86848536  0.31793893  0.37761909    -0.74200
Ni1275     Ni  0.89083508  0.39133525  0.39816176     1.25400
Ni1276     Ni  0.86074515  0.36118741  0.35256591     1.25400
C1277       C  0.88436915  0.31735388  0.40684592     0.88100
C1278       C  0.86730156  0.43493709  0.34373419     0.88000
C1279       C  0.81693441  0.38484329  0.40676617     0.88000
C1280       C  0.93449984  0.36795655  0.34372292     0.88200
O1281       O  0.60314725  0.34589915  0.57945235    -0.74100
O1282       O  0.61679315  0.43440692  0.62678985    -0.74100
O1283       O  0.65413464  0.39656820  0.57941272    -0.74200
O1284       O  0.56567309  0.38356290  0.62688034    -0.74300
O1285       O  0.59403488  0.35549804  0.66935500    -0.74200
O1286       O  0.68225202  0.36861860  0.62208566    -0.74200
O1287       O  0.64461312  0.40596188  0.66936023    -0.74100
O1288       O  0.63116501  0.31772029  0.62203912    -0.74200
Ni1289     Ni  0.60890894  0.39114105  0.60163115     1.25400
Ni1290     Ni  0.63904633  0.36091557  0.64714769     1.25400
C1291       C  0.61510775  0.31717672  0.59289875     0.88100
C1292       C  0.63256071  0.43470283  0.65608542     0.88000
C1293       C  0.68281882  0.38457928  0.59291064     0.88000
C1294       C  0.56535188  0.36772354  0.65613668     0.88200
C1295       C  0.71700567  0.38832356  0.57433465     0.03400
C1296       C  0.71760852  0.39372239  0.53848337    -0.12700
C1297       C  0.74981817  0.39286183  0.51950407     0.00900
C1298       C  0.78170864  0.38954248  0.53866791    -0.11200
C1299       C  0.78152317  0.38593124  0.57470630     0.03400
C1300       C  0.74909035  0.38454736  0.59219896    -0.10700
H1301       H  0.69238557  0.39748847  0.52596026     0.09000
H1302       H  0.80720527  0.38825532  0.52620476     0.06600
H1303       H  0.74884104  0.38083315  0.61988952     0.06400
C1304       C  0.78342329  0.38963789  0.92581649     0.03400
C1305       C  0.78255556  0.39547665  0.96164107    -0.12700
C1306       C  0.75023429  0.39402301  0.98051062     0.00900
C1307       C  0.71854101  0.38986853  0.96131360    -0.11200
C1308       C  0.71893798  0.38625595  0.92531259     0.03400
C1309       C  0.75142804  0.38525920  0.90791262    -0.10700
H1310       H  0.80761889  0.39999165  0.97428408     0.09000
H1311       H  0.69307507  0.38786727  0.97379832     0.06600
H1312       H  0.75177260  0.38135360  0.88024858     0.06400
C1313       C  0.96713627  0.36122656  0.67562602     0.03400
C1314       C  0.49909303  0.36538394  0.65781027    -0.12700
C1315       C  0.53156871  0.36378477  0.67521381     0.00900
C1316       C  0.53187912  0.35980440  0.71119359    -0.11200
C1317       C  0.00005046  0.35622988  0.73040331     0.03400
C1318       C  0.96781479  0.35535625  0.71143060    -0.10700
H1319       H  0.49879151  0.36941358  0.63016223     0.09000
H1320       H  0.55740216  0.36104634  0.72361565     0.06600
H1321       H  0.94263714  0.35124643  0.72396672     0.06400
C1322       C  0.53360981  0.36082070  0.82436380     0.03400
C1323       C  0.53284592  0.35508997  0.78853397    -0.12700
C1324       C  0.00035945  0.35611682  0.76962463     0.00900
C1325       C  0.96853995  0.35978844  0.78881172    -0.11200
C1326       C  0.96881275  0.36357593  0.82482809     0.03400
C1327       C  0.00128099  0.36485526  0.84227175    -0.10700
H1328       H  0.55799474  0.35100917  0.77595035     0.09000
H1329       H  0.94304338  0.36128139  0.77634463     0.06600
H1330       H  0.00158971  0.36875779  0.86993716     0.06400
O1331       O  0.65651922  0.39436563  0.91932981    -0.74100
O1332       O  0.56838809  0.38065294  0.87208706    -0.74100
O1333       O  0.60632267  0.34364685  0.91940650    -0.73400
O1334       O  0.61920725  0.43185907  0.87197956    -0.74300
O1335       O  0.64749727  0.40381931  0.82947497    -0.74200
O1336       O  0.63414600  0.31526749  0.87679298    -0.74200
O1337       O  0.59662419  0.35294281  0.82935057    -0.74100
O1338       O  0.68502455  0.36628219  0.87694855    -0.74200
Ni1339     Ni  0.61156794  0.38866277  0.89712868     1.25400
Ni1340     Ni  0.64185309  0.35855110  0.85163220     1.25400
C1341       C  0.68524024  0.38216594  0.90618385     0.88100
C1342       C  0.56786458  0.36472447  0.84288770     0.88000
C1343       C  0.61848611  0.31495416  0.90613799     0.88000
C1344       C  0.63537606  0.43248386  0.84290070     0.88200
C1345       C  0.71853674  0.11380941  0.57477177     0.03400
C1346       C  0.71830547  0.11001232  0.53877300    -0.12700
C1347       C  0.75013557  0.10620503  0.51964508     0.00900
C1348       C  0.78236211  0.10518925  0.53860920    -0.11200
C1349       C  0.78304741  0.11106856  0.57440362     0.03400
C1350       C  0.75098537  0.11524444  0.59223587    -0.10700
H1351       H  0.69282440  0.11153323  0.52628517     0.09000
H1352       H  0.80752092  0.10096138  0.52607845     0.06600
H1353       H  0.75125671  0.11923527  0.61988910     0.06400
C1354       C  0.78096187  0.11458977  0.92509143     0.03400
C1355       C  0.78134373  0.11134294  0.96113819    -0.12700
C1356       C  0.74965738  0.10717588  0.98038662     0.00900
C1357       C  0.71734457  0.10562132  0.96154575    -0.11200
C1358       C  0.71648565  0.11102761  0.92565866     0.03400
C1359       C  0.74846798  0.11525587  0.90768103    -0.10700
H1360       H  0.80680272  0.11353887  0.97358576     0.09000
H1361       H  0.69228674  0.10127869  0.97424210     0.06600
H1362       H  0.74810629  0.11880742  0.87997071     0.06400
C1363       C  0.61387120  0.21844652  0.57471142     0.03400
C1364       C  0.61015334  0.21819968  0.53869216    -0.12700
C1365       C  0.60647661  0.25002115  0.51951524     0.00900
C1366       C  0.60558810  0.28228247  0.53846729    -0.11200
C1367       C  0.61125112  0.28296388  0.57430997     0.03400
C1368       C  0.61521692  0.25089708  0.59217352    -0.10700
H1369       H  0.61160561  0.19271035  0.52623664     0.09000
H1370       H  0.60161729  0.30746218  0.52592087     0.06600
H1371       H  0.61905251  0.25117081  0.61984788     0.06400
C1372       C  0.61142282  0.21666301  0.92575390     0.03400
C1373       C  0.60574078  0.21747945  0.96159165    -0.12700
C1374       C  0.60708000  0.24976908  0.98046955     0.00900
C1375       C  0.61106936  0.28150251  0.96125914    -0.11200
C1376       C  0.61462474  0.28117128  0.92524742     0.03400
C1377       C  0.61570801  0.24867537  0.90783308    -0.10700
H1378       H  0.60138400  0.19238627  0.97423153     0.09000
H1379       H  0.61291047  0.30698859  0.97371013     0.06600
H1380       H  0.61951967  0.24833511  0.88015688     0.06400
C1381       C  0.96863863  0.13584522  0.67521343     0.03400
C1382       C  0.96831738  0.13981707  0.71119105    -0.12700
C1383       C  0.49998501  0.14297654  0.73043897     0.00900
C1384       C  0.53229582  0.14358874  0.71153855    -0.11200
C1385       C  0.53298171  0.13826505  0.67564819     0.03400
C1386       C  0.50092150  0.13457824  0.65773642    -0.10700
H1387       H  0.94282113  0.13828015  0.72365085     0.09000
H1388       H  0.55751765  0.14714747  0.72413038     0.06600
H1389       H  0.50119964  0.13087499  0.63004448     0.06400
C1390       C  0.53092015  0.13611283  0.82498782     0.03400
C1391       C  0.99838238  0.13496642  0.84218147    -0.12700
C1392       C  0.96642292  0.13930925  0.82421164     0.00900
C1393       C  0.96729582  0.14522589  0.78842443    -0.11200
C1394       C  0.99959770  0.14387781  0.76958083     0.03400
C1395       C  0.53125875  0.13966343  0.78895963    -0.10700
H1396       H  0.99798143  0.13100589  0.86983781     0.09000
H1397       H  0.94222403  0.14967757  0.77579465     0.06600
H1398       H  0.55679964  0.13827035  0.77658742     0.06400
C1399       C  0.63655156  0.46852393  0.67515579     0.03400
C1400       C  0.64010644  0.46826399  0.71118907    -0.12700
C1401       C  0.64370957  0.50007802  0.73037754     0.00900
C1402       C  0.64348267  0.03226383  0.71152384    -0.11200
C1403       C  0.63826151  0.03292887  0.67562924     0.03400
C1404       C  0.63530070  0.50100930  0.65770653    -0.10700
H1405       H  0.63848412  0.44279190  0.72367282     0.09000
H1406       H  0.64703566  0.05748099  0.72410777     0.06600
H1407       H  0.63085872  0.00115491  0.63002901     0.06400
C1408       C  0.63505694  0.03102598  0.82487006     0.03400
C1409       C  0.63480355  0.49874885  0.84221802    -0.12700
C1410       C  0.63912137  0.46672378  0.82435270     0.00900
C1411       C  0.64493732  0.46747358  0.78853516    -0.11200
C1412       C  0.64357490  0.49971194  0.76958693     0.03400
C1413       C  0.63886163  0.03132920  0.78886737    -0.10700
H1414       H  0.63095327  0.49844050  0.86989038     0.09000
H1415       H  0.64935322  0.44236780  0.77597318     0.06600
H1416       H  0.63759070  0.05685366  0.77647352     0.06400
O1417       O  0.61566197  0.06515003  0.87334668    -0.74100
O1418       O  0.60284820  0.15375175  0.92073834    -0.74100
O1419       O  0.56493758  0.11633435  0.87339632    -0.74200
O1420       O  0.65350664  0.10269661  0.92069270    -0.74300
O1421       O  0.68160021  0.13045662  0.87789578    -0.74200
O1422       O  0.59338484  0.14416171  0.83082538    -0.74200
O1423       O  0.63088868  0.18169668  0.87802126    -0.74100
O1424       O  0.64355248  0.09343269  0.83071272    -0.74200
Ni1425     Ni  0.60820350  0.10844905  0.89855784     1.25400
Ni1426     Ni  0.63838836  0.13845443  0.85293362     1.25400
C1427       C  0.63130880  0.06479261  0.84398910     0.88100
C1428       C  0.61495125  0.18238239  0.90721404     0.88000
C1429       C  0.56466434  0.13211199  0.84410075     0.88000
C1430       C  0.68220661  0.11458186  0.90712040     0.88200
O1431       O  0.63336984  0.18432085  0.62316529    -0.74100
O1432       O  0.64672589  0.09577695  0.67045970    -0.74100
O1433       O  0.68437479  0.13343910  0.62311709    -0.74200
O1434       O  0.59588120  0.14650353  0.67054928    -0.74300
O1435       O  0.56774946  0.11874293  0.62777323    -0.74200
O1436       O  0.65605641  0.10540302  0.58059653    -0.74200
O1437       O  0.61864499  0.06770617  0.62783843    -0.74100
O1438       O  0.60563403  0.15594168  0.58050098    -0.74200
Ni1439     Ni  0.64111661  0.14103905  0.64832502     1.25400
Ni1440     Ni  0.61099012  0.11091638  0.60273618     1.25400
C1441       C  0.61773300  0.18464018  0.59380136     0.88100
C1442       C  0.63462250  0.06711769  0.65701249     0.88000
C1443       C  0.68472495  0.11765860  0.59383315     0.88000
C1444       C  0.56718618  0.13457206  0.65702886     0.88200
O1445       O  0.81786339  0.13089231  0.62210017    -0.74100
O1446       O  0.90611260  0.14395499  0.66941552    -0.74100
O1447       O  0.86891626  0.18184810  0.62215668    -0.74200
O1448       O  0.85553698  0.09352140  0.66933689    -0.74300
O1449       O  0.88354415  0.06513273  0.62684832    -0.74200
O1450       O  0.89674384  0.15372278  0.57942675    -0.74200
O1451       O  0.93450849  0.11614624  0.62681090    -0.74100
O1452       O  0.84595054  0.10282058  0.57949050    -0.74200
Ni1453     Ni  0.86107861  0.13858372  0.64718887     1.25400
Ni1454     Ni  0.89121576  0.10842920  0.60163854     1.25400
C1455       C  0.81726818  0.11484977  0.59296115     0.88100
C1456       C  0.93482701  0.13185578  0.65613534     0.88000
C1457       C  0.88481328  0.18243774  0.59293432     0.88000
C1458       C  0.86774096  0.06481697  0.65612786     0.88200
C1459       C  0.88614343  0.28125009  0.57478425     0.03400
C1460       C  0.88463608  0.24877182  0.59221867    -0.12700
C1461       C  0.88853770  0.21669879  0.57433493     0.00900
C1462       C  0.89403956  0.21742817  0.53846341    -0.11200
C1463       C  0.89310125  0.24972796  0.51953863     0.03400
C1464       C  0.88980035  0.28153468  0.53877188    -0.10700
H1465       H  0.88079745  0.24848715  0.61989193     0.09000
H1466       H  0.89791332  0.19225208  0.52588561     0.06600
H1467       H  0.88854769  0.30705853  0.52636639     0.06400
C1468       C  0.88609617  0.21899306  0.92492676     0.03400
C1469       C  0.88465930  0.25149845  0.90759194    -0.12700
C1470       C  0.88867224  0.28346947  0.92558525     0.00900
C1471       C  0.89446060  0.28261792  0.96139445    -0.11200
C1472       C  0.89368111  0.25025502  0.98019486     0.03400
C1473       C  0.89004157  0.21855446  0.96089636    -0.10700
H1474       H  0.88070327  0.25188546  0.87993412     0.09000
H1475       H  0.89845762  0.30775939  0.97403347     0.06600
H1476       H  0.88869637  0.19299574  0.97325600     0.06400
C1477       C  0.86384606  0.03104605  0.67528812     0.03400
C1478       C  0.86538093  0.49881599  0.65771956    -0.12700
C1479       C  0.86146001  0.46680482  0.67566597     0.00900
C1480       C  0.85599333  0.46759467  0.71154591    -0.11200
C1481       C  0.85720736  0.49991487  0.73041625     0.03400
C1482       C  0.86005005  0.03145977  0.71128121    -0.10700
H1483       H  0.86903758  0.49849214  0.63002159     0.09000
H1484       H  0.85193558  0.44247152  0.72418569     0.06600
H1485       H  0.86160949  0.05698311  0.72367007     0.06400
C1486       C  0.86033062  0.03362122  0.82433824     0.03400
C1487       C  0.85460301  0.03269741  0.78852168    -0.12700
C1488       C  0.85739235  0.50045612  0.76962251     0.00900
C1489       C  0.86128800  0.46872530  0.78883629    -0.11200
C1490       C  0.86481422  0.46906526  0.82485312     0.03400
C1491       C  0.86588802  0.50152463  0.84229037    -0.10700
H1492       H  0.85024786  0.05774664  0.77583234     0.09000
H1493       H  0.86303650  0.44324107  0.77639774     0.06600
H1494       H  0.86958042  0.50183525  0.86998400     0.06400
O1495       O  0.86606807  0.18508176  0.87659455    -0.74100
O1496       O  0.85248159  0.09665726  0.82913100    -0.74100
O1497       O  0.81495816  0.13424841  0.87660804    -0.74200
O1498       O  0.90346599  0.14747364  0.82914301    -0.74300
O1499       O  0.93151703  0.11929839  0.87171442    -0.74200
O1500       O  0.84338930  0.10634129  0.91914343    -0.74200
O1501       O  0.88033750  0.06849587  0.87183080    -0.74100
O1502       O  0.89408396  0.15656822  0.91901238    -0.74200
Ni1503     Ni  0.85820915  0.14189927  0.85135097     1.25400
Ni1504     Ni  0.88835916  0.11163641  0.89684520     1.25400
C1505       C  0.88197736  0.18529941  0.90581501     0.88100
C1506       C  0.86428589  0.06792576  0.84270500     0.88000
C1507       C  0.81468959  0.11852419  0.90592883     0.88000
C1508       C  0.93214182  0.13544927  0.84263556     0.88200
O1509       O  0.85331213  0.40387007  0.67059399    -0.74100
O1510       O  0.86660657  0.31540070  0.62316283    -0.74100
O1511       O  0.90419348  0.35305844  0.67053387    -0.74200
O1512       O  0.81566522  0.36636736  0.62312497    -0.74300
O1513       O  0.84404463  0.39423426  0.58054290    -0.74200
O1514       O  0.93230289  0.38106000  0.62789770    -0.74200
O1515       O  0.89456679  0.34374986  0.58061716    -0.74100
O1516       O  0.88121246  0.43200550  0.62790829    -0.74200
Ni1517     Ni  0.85891965  0.35864874  0.64835570     1.25400
Ni1518     Ni  0.88906832  0.38880083  0.60280687     1.25400
C1519       C  0.86524041  0.43257400  0.65709721     0.88100
C1520       C  0.88236158  0.31506284  0.59386886     0.88000
C1521       C  0.93289635  0.36504310  0.65705440     0.88000
C1522       C  0.81534358  0.38208531  0.59379821     0.88200
O1523       O  0.89701589  0.34635803  0.92063589    -0.74100
O1524       O  0.88426003  0.43493999  0.87328835    -0.74100
O1525       O  0.84647381  0.39754503  0.92076996    -0.74200
O1526       O  0.93485302  0.38360935  0.87318602    -0.74300
O1527       O  0.90625894  0.35577606  0.83071531    -0.74200
O1528       O  0.81817845  0.36987545  0.87804879    -0.74200
O1529       O  0.85624153  0.40668959  0.83070940    -0.74100
O1530       O  0.86874393  0.31843482  0.87804487    -0.74200
Ni1531     Ni  0.89168711  0.39163977  0.89847768     1.25400
Ni1532     Ni  0.86130529  0.36167503  0.85295207     1.25400
C1533       C  0.88485951  0.31774325  0.90714405     0.88100
C1534       C  0.86856291  0.43530925  0.84396202     0.88000
C1535       C  0.81768677  0.38580193  0.90725848     0.88000
C1536       C  0.93504741  0.36776367  0.84392216     0.88200
O1537       O  0.60316546  0.84647014  0.07970845    -0.74100
O1538       O  0.61685247  0.93516069  0.12685927    -0.74100
O1539       O  0.65412001  0.89722763  0.07952879    -0.74200
O1540       O  0.56563818  0.88443594  0.12698135    -0.74300
O1541       O  0.59391913  0.85638249  0.16951514    -0.74200
O1542       O  0.68225052  0.86939927  0.12226266    -0.74200
O1543       O  0.64457370  0.90668564  0.16947211    -0.74100
O1544       O  0.63118888  0.81838329  0.12234367    -0.74200
Ni1545     Ni  0.60891427  0.89183945  0.10176106     1.25400
Ni1546     Ni  0.63900671  0.86167107  0.14733646     1.25400
C1547       C  0.61517381  0.81776451  0.09318761     0.88100
C1548       C  0.63259036  0.93542769  0.15617661     0.88000
C1549       C  0.68282274  0.88537250  0.09307780     0.88000
C1550       C  0.56526706  0.86869353  0.15627599     0.88200
C1551       C  0.71702515  0.88930154  0.07452998     0.03400
C1552       C  0.71768088  0.89509029  0.03871716    -0.12700
C1553       C  0.74987680  0.89393145  0.01972966     0.00900
C1554       C  0.78173576  0.89022697  0.03885238    -0.11200
C1555       C  0.78153519  0.88657395  0.07487477     0.03400
C1556       C  0.74909666  0.88527786  0.09236792    -0.10700
H1557       H  0.69252394  0.89929792  0.02615554     0.09000
H1558       H  0.80719981  0.88856896  0.02633282     0.06600
H1559       H  0.74883301  0.88137395  0.12003305     0.06400
C1560       C  0.78356283  0.88847683  0.42583229     0.03400
C1561       C  0.78273053  0.89412331  0.46167823    -0.12700
C1562       C  0.75036928  0.89331986  0.48049379     0.00900
C1563       C  0.71862472  0.88994719  0.46116854    -0.11200
C1564       C  0.71899602  0.88612144  0.42517057     0.03400
C1565       C  0.75153286  0.88460663  0.40783794    -0.10700
H1566       H  0.80787465  0.89798668  0.47434903     0.09000
H1567       H  0.69306443  0.88870403  0.47352182     0.06600
H1568       H  0.75189945  0.88069291  0.38017578     0.06400
C1569       C  0.96691387  0.86060564  0.17572557     0.03400
C1570       C  0.49897177  0.86584452  0.15784330    -0.12700
C1571       C  0.53144772  0.86483553  0.17531822     0.00900
C1572       C  0.53172122  0.86122968  0.21131711    -0.11200
C1573       C  0.00002563  0.85590534  0.23038664     0.03400
C1574       C  0.96773927  0.85458649  0.21150722    -0.10700
H1575       H  0.49867616  0.86974775  0.13017888     0.09000
H1576       H  0.55715472  0.86322559  0.22385542     0.06600
H1577       H  0.94266300  0.85009052  0.22412658     0.06400
C1578       C  0.53339155  0.86095539  0.32436394     0.03400
C1579       C  0.53263347  0.85533778  0.28851840    -0.12700
C1580       C  0.00048012  0.85603660  0.26957482     0.00900
C1581       C  0.96874319  0.86021746  0.28874537    -0.11200
C1582       C  0.96909470  0.86407523  0.32473576     0.03400
C1583       C  0.00159143  0.86537888  0.34211460    -0.10700
H1584       H  0.55773526  0.85094734  0.27590926     0.09000
H1585       H  0.94326592  0.86198829  0.27626321     0.06600
H1586       H  0.00193775  0.86946523  0.36975364     0.06400
O1587       O  0.65645866  0.89418000  0.41931133    -0.74100
O1588       O  0.56820712  0.88064545  0.37210804    -0.74100
O1589       O  0.60606055  0.84359758  0.41944283    -0.73400
O1590       O  0.61911482  0.93173466  0.37201282    -0.74300
O1591       O  0.64706995  0.90361385  0.32935102    -0.74200
O1592       O  0.63405314  0.81519997  0.37693842    -0.74200
O1593       O  0.59632638  0.85262994  0.32948405    -0.74100
O1594       O  0.68489949  0.86629449  0.37678106    -0.74200
Ni1595     Ni  0.61141969  0.88856630  0.39714929     1.25400
Ni1596     Ni  0.64161061  0.85839767  0.35163156     1.25400
C1597       C  0.68519850  0.88211225  0.40605468     0.88100
C1598       C  0.56762421  0.86462029  0.34295530     0.88000
C1599       C  0.61830917  0.81492083  0.40624187     0.88000
C1600       C  0.63514478  0.93231809  0.34286688     0.88200
C1601       C  0.71853648  0.61408472  0.07466875     0.03400
C1602       C  0.71828840  0.61042552  0.03864009    -0.12700
C1603       C  0.75010285  0.60649994  0.01949993     0.00900
C1604       C  0.78232700  0.60529513  0.03845060    -0.11200
C1605       C  0.78302546  0.61097934  0.07427031     0.03400
C1606       C  0.75098726  0.61519774  0.09213380    -0.10700
H1607       H  0.69283167  0.61217852  0.02611071     0.09000
H1608       H  0.80746796  0.60101967  0.02588294     0.06600
H1609       H  0.75127636  0.61902585  0.11980948     0.06400
C1610       C  0.78116498  0.61397459  0.42514967     0.03400
C1611       C  0.78153834  0.61031617  0.46115656    -0.12700
C1612       C  0.74979747  0.60674765  0.48043243     0.00900
C1613       C  0.71745425  0.60580474  0.46159654    -0.11200
C1614       C  0.71663954  0.61136355  0.42574618     0.03400
C1615       C  0.74865653  0.61534519  0.40778422    -0.10700
H1616       H  0.80707675  0.61177198  0.47354917     0.09000
H1617       H  0.69231220  0.60181164  0.47423907     0.06600
H1618       H  0.74830807  0.61915388  0.38010782     0.06400
C1619       C  0.61360887  0.71892703  0.07509243     0.03400
C1620       C  0.60977104  0.71863636  0.03910798    -0.12700
C1621       C  0.60661577  0.75041243  0.01982264     0.00900
C1622       C  0.60608844  0.78275833  0.03870931    -0.11200
C1623       C  0.61139915  0.78348755  0.07461231     0.03400
C1624       C  0.61510465  0.75140499  0.09253650    -0.10700
H1625       H  0.61079160  0.69307609  0.02674499     0.09000
H1626       H  0.60266043  0.80798990  0.02609745     0.06600
H1627       H  0.61888293  0.75168555  0.12021790     0.06400
C1628       C  0.61117776  0.71671727  0.42573618     0.03400
C1629       C  0.60550171  0.71745116  0.46156209    -0.12700
C1630       C  0.60685741  0.74969022  0.48048560     0.00900
C1631       C  0.61097265  0.78146459  0.46136944    -0.11200
C1632       C  0.61442765  0.78117975  0.42534457     0.03400
C1633       C  0.61539710  0.74873840  0.40786443    -0.10700
H1634       H  0.60109031  0.69235290  0.47415000     0.09000
H1635       H  0.61298915  0.80689550  0.47390119     0.06600
H1636       H  0.61912171  0.74844517  0.38017527     0.06400
C1637       C  0.96834083  0.63542965  0.17537476     0.03400
C1638       C  0.96806956  0.63931637  0.21137359    -0.12700
C1639       C  0.50004082  0.64333401  0.23039660     0.00900
C1640       C  0.53231868  0.64428027  0.21148993    -0.11200
C1641       C  0.53305456  0.63851434  0.17567200     0.03400
C1642       C  0.50102357  0.63433371  0.15777881    -0.10700
H1643       H  0.94261193  0.63759456  0.22390221     0.09000
H1644       H  0.55747311  0.64839078  0.22406716     0.06600
H1645       H  0.50133679  0.63036649  0.13012256     0.06400
C1646       C  0.53105552  0.63587618  0.32485406     0.03400
C1647       C  0.99875775  0.63447721  0.34224458    -0.12700
C1648       C  0.96670528  0.63883397  0.32442039     0.00900
C1649       C  0.96741177  0.64474446  0.28863199    -0.11200
C1650       C  0.99961381  0.64345403  0.26966222     0.03400
C1651       C  0.53139061  0.63977128  0.28885478    -0.10700
H1652       H  0.99847843  0.63051486  0.36990147     0.09000
H1653       H  0.94229319  0.64919299  0.27607664     0.06600
H1654       H  0.55691643  0.63842307  0.27643805     0.06400
C1655       C  0.63667664  0.96916730  0.17531334     0.03400
C1656       C  0.64051489  0.96873037  0.21130039    -0.12700
C1657       C  0.64432157  0.00041476  0.23061208     0.00900
C1658       C  0.64395829  0.53256966  0.21155262    -0.11200
C1659       C  0.63823938  0.53328966  0.17571690     0.03400
C1660       C  0.63537583  0.00170277  0.15801078    -0.10700
H1661       H  0.63898339  0.94318577  0.22365896     0.09000
H1662       H  0.64808144  0.55772700  0.22412861     0.06600
H1663       H  0.62999061  0.50156566  0.13021525     0.06400
C1664       C  0.63555397  0.53127031  0.32491145     0.03400
C1665       C  0.63513355  0.99859316  0.34240728    -0.12700
C1666       C  0.63911875  0.96659116  0.32442434     0.00900
C1667       C  0.64499165  0.96742856  0.28862110    -0.11200
C1668       C  0.64423809  0.99979012  0.26981456     0.03400
C1669       C  0.63930087  0.53160865  0.28890634    -0.10700
H1670       H  0.63112555  0.99822772  0.37005815     0.09000
H1671       H  0.64900506  0.94229279  0.27598011     0.06600
H1672       H  0.63783483  0.55712785  0.27647518     0.06400
O1673       O  0.61599541  0.56532920  0.37334680    -0.74100
O1674       O  0.60286491  0.65382873  0.42072390    -0.74100
O1675       O  0.56510320  0.61631366  0.37335661    -0.74200
O1676       O  0.65369010  0.60299516  0.42070781    -0.74300
O1677       O  0.68173890  0.63101164  0.37803955    -0.74200
O1678       O  0.59351941  0.64407793  0.33073183    -0.74200
O1679       O  0.63070046  0.68191058  0.37796068    -0.74100
O1680       O  0.64400168  0.59367441  0.33082041    -0.74200
Ni1681     Ni  0.60838424  0.60858381  0.39854814     1.25400
Ni1682     Ni  0.63852060  0.63869589  0.35295764     1.25400
C1683       C  0.63174253  0.56501309  0.34404390     0.88100
C1684       C  0.61480378  0.68250366  0.40717363     0.88000
C1685       C  0.56481402  0.63197318  0.34399975     0.88000
C1686       C  0.68236509  0.61504011  0.40721481     0.88200
O1687       O  0.63344975  0.68470393  0.12333045    -0.74100
O1688       O  0.64678264  0.59613294  0.17055261    -0.74100
O1689       O  0.68446574  0.63373409  0.12313012    -0.74200
O1690       O  0.59595928  0.64687521  0.17061766    -0.74300
O1691       O  0.56787205  0.61895531  0.12791076    -0.74200
O1692       O  0.65604873  0.60591965  0.08053719    -0.74200
O1693       O  0.61884717  0.56807329  0.12783877    -0.74100
O1694       O  0.60551012  0.65639070  0.08074976    -0.74200
Ni1695     Ni  0.64120909  0.64138879  0.14840742     1.25400
Ni1696     Ni  0.61105193  0.61130471  0.10281476     1.25400
C1697       C  0.61760214  0.68508367  0.09408444     0.88100
C1698       C  0.63471469  0.56747956  0.15707329     0.88000
C1699       C  0.68475638  0.61804551  0.09378469     0.88000
C1700       C  0.56728325  0.63486104  0.15711481     0.88200
O1701       O  0.81779114  0.63055858  0.12203187    -0.74100
O1702       O  0.90588730  0.64357261  0.16947646    -0.74100
O1703       O  0.86872328  0.68157842  0.12225214    -0.74200
O1704       O  0.85540527  0.59316509  0.16913011    -0.74300
O1705       O  0.88340488  0.56485513  0.12657903    -0.74200
O1706       O  0.89667210  0.65360466  0.07950042    -0.74200
O1707       O  0.93435218  0.61582372  0.12687121    -0.74100
O1708       O  0.84592167  0.60268371  0.07932233    -0.74200
Ni1709     Ni  0.86093378  0.63824259  0.14715640     1.25400
Ni1710     Ni  0.89113817  0.60822114  0.10155311     1.25400
C1711       C  0.81723007  0.61463532  0.09283812     0.88100
C1712       C  0.93459794  0.63144890  0.15624546     0.88000
C1713       C  0.88461570  0.68226087  0.09303412     0.88000
C1714       C  0.86753830  0.56449560  0.15582133     0.88200
C1715       C  0.88589427  0.78111687  0.07501959     0.03400
C1716       C  0.88438466  0.74861454  0.09241939    -0.12700
C1717       C  0.88820751  0.71656287  0.07446978     0.00900
C1718       C  0.89357359  0.71735082  0.03857742    -0.11200
C1719       C  0.89304203  0.74972444  0.01972858     0.03400
C1720       C  0.88977148  0.78146566  0.03904156    -0.10700
H1721       H  0.88059133  0.74829672  0.12009841     0.09000
H1722       H  0.89712097  0.69214122  0.02595387     0.06600
H1723       H  0.88876119  0.80704402  0.02670575     0.06400
C1724       C  0.88603329  0.71851990  0.42534254     0.03400
C1725       C  0.88518980  0.75097994  0.40787509    -0.12700
C1726       C  0.88961630  0.78299534  0.42573877     0.00900
C1727       C  0.89540539  0.78222356  0.46155465    -0.11200
C1728       C  0.89378422  0.74999852  0.48048489     0.03400
C1729       C  0.88953863  0.71823092  0.46137110    -0.10700
H1730       H  0.88135057  0.75129527  0.38020088     0.09000
H1731       H  0.89999079  0.80728372  0.47417196     0.06600
H1732       H  0.88737771  0.69282241  0.47393087     0.06400
C1733       C  0.86348448  0.53074109  0.17487294     0.03400
C1734       C  0.86602897  0.99868468  0.15792838    -0.12700
C1735       C  0.86174229  0.96668437  0.17579410     0.00900
C1736       C  0.85584506  0.96741509  0.21158976    -0.11200
C1737       C  0.85694645  0.99965741  0.23053703     0.03400
C1738       C  0.85950665  0.53114007  0.21083797    -0.10700
H1739       H  0.86999155  0.99836352  0.13027039     0.09000
H1740       H  0.85155059  0.94227222  0.22412694     0.06600
H1741       H  0.86066528  0.55671378  0.22316391     0.06400
C1742       C  0.86122027  0.53324197  0.32405754     0.03400
C1743       C  0.85564352  0.53247559  0.28820578    -0.12700
C1744       C  0.85679357  0.99998781  0.26976089     0.00900
C1745       C  0.86018215  0.96814387  0.28895363    -0.11200
C1746       C  0.86396861  0.96839320  0.32496807     0.03400
C1747       C  0.86541520  0.00082620  0.34243217    -0.10700
H1748       H  0.85209288  0.55769205  0.27559439     0.09000
H1749       H  0.86148383  0.94263579  0.27649618     0.06600
H1750       H  0.86925991  0.00110011  0.37010619     0.06400
O1751       O  0.86629273  0.68457216  0.37687774    -0.74100
O1752       O  0.85289243  0.59616979  0.32927435    -0.74100
O1753       O  0.81525208  0.63369908  0.37677586    -0.74200
O1754       O  0.90377113  0.64695887  0.32940565    -0.74300
O1755       O  0.93188359  0.61909997  0.37213157    -0.74200
O1756       O  0.84358863  0.60546378  0.41916221    -0.74200
O1757       O  0.88103826  0.56800203  0.37178955    -0.74100
O1758       O  0.89396414  0.65602465  0.41948127    -0.74200
Ni1759     Ni  0.85851725  0.64138221  0.35157675     1.25400
Ni1760     Ni  0.88864362  0.61110754  0.39707057     1.25400
C1761       C  0.88194370  0.68477679  0.40623578     0.88100
C1762       C  0.86500418  0.56746626  0.34264377     0.88000
C1763       C  0.81492180  0.61780165  0.40600286     0.88000
C1764       C  0.93247193  0.63506600  0.34295450     0.88200
O1765       O  0.85333595  0.90384308  0.17070569    -0.74100
O1766       O  0.86618765  0.81532895  0.12330897    -0.74100
O1767       O  0.90390626  0.85273765  0.17072899    -0.74200
O1768       O  0.81553705  0.86665005  0.12322114    -0.74300
O1769       O  0.84410632  0.89441017  0.08068924    -0.74200
O1770       O  0.93216028  0.88062478  0.12810823    -0.74200
O1771       O  0.89433587  0.84358683  0.08082098    -0.74100
O1772       O  0.88145737  0.93186547  0.12808101    -0.74200
Ni1773     Ni  0.85870076  0.85861829  0.14849050     1.25400
Ni1774     Ni  0.88905521  0.88865080  0.10298727     1.25400
C1775       C  0.86543641  0.93248313  0.15723418     0.88100
C1776       C  0.88205171  0.81493408  0.09407380     0.88000
C1777       C  0.93266604  0.86456624  0.15723986     0.88000
C1778       C  0.81532575  0.88244182  0.09393321     0.88200
O1779       O  0.89775947  0.84595469  0.42067513    -0.74100
O1780       O  0.88378968  0.93439904  0.37334445    -0.74100
O1781       O  0.84657336  0.89654342  0.42085668    -0.74200
O1782       O  0.93504943  0.88376124  0.37317094    -0.74300
O1783       O  0.90667266  0.85564725  0.33073493    -0.74200
O1784       O  0.81847680  0.86857966  0.37819002    -0.74200
O1785       O  0.85597813  0.90588706  0.33080670    -0.74100
O1786       O  0.86971401  0.81778379  0.37810061    -0.74200
Ni1787     Ni  0.89182355  0.89119783  0.39852314     1.25400
Ni1788     Ni  0.86168303  0.86093163  0.35303638     1.25400
C1789       C  0.88582584  0.81723090  0.40720455     0.88100
C1790       C  0.86800751  0.93463240  0.34405311     0.88000
C1791       C  0.81786685  0.88458322  0.40735411     0.88000
C1792       C  0.93534674  0.86797291  0.34388422     0.88200
O1793       O  0.60257396  0.84598748  0.57942915    -0.74100
O1794       O  0.61625182  0.93440862  0.62680675    -0.74100
O1795       O  0.65359681  0.89670118  0.57934294    -0.74200
O1796       O  0.56512323  0.88356238  0.62692590    -0.74300
O1797       O  0.59354712  0.85545009  0.66933158    -0.74200
O1798       O  0.68170950  0.86878563  0.62203470    -0.74200
O1799       O  0.64406819  0.90593740  0.66936887    -0.74100
O1800       O  0.63067545  0.81784589  0.62199156    -0.74200
Ni1801     Ni  0.60835324  0.89120533  0.60161924     1.25400
Ni1802     Ni  0.63853144  0.86097418  0.64710987     1.25400
C1803       C  0.61455168  0.81728450  0.59289661     0.88100
C1804       C  0.63202026  0.93466640  0.65609761     0.88000
C1805       C  0.68229784  0.88476610  0.59286549     0.88000
C1806       C  0.56483459  0.86763154  0.65614615     0.88200
C1807       C  0.71657074  0.88856949  0.57438973     0.03400
C1808       C  0.71742922  0.89417807  0.53854655    -0.12700
C1809       C  0.74978188  0.89318547  0.51972710     0.00900
C1810       C  0.78148325  0.88940950  0.53904909    -0.11200
C1811       C  0.78105715  0.88581231  0.57507716     0.03400
C1812       C  0.74854396  0.88459298  0.59240725    -0.10700
H1813       H  0.69229736  0.89818329  0.52590503     0.09000
H1814       H  0.80702592  0.88781754  0.52668646     0.06600
H1815       H  0.74815439  0.88083544  0.62009117     0.06400
C1816       C  0.78298787  0.88904673  0.92575321     0.03400
C1817       C  0.78229409  0.89490507  0.96154255    -0.12700
C1818       C  0.75009848  0.89371681  0.98052687     0.00900
C1819       C  0.71826885  0.88964434  0.96142213    -0.11200
C1820       C  0.71849155  0.88601089  0.92538841     0.03400
C1821       C  0.75093915  0.88486199  0.90790368    -0.10700
H1822       H  0.80743845  0.89926286  0.97406917     0.09000
H1823       H  0.69282173  0.88782855  0.97396477     0.06600
H1824       H  0.75122371  0.88100395  0.88023244     0.06400
C1825       C  0.96659738  0.86102329  0.67578078     0.03400
C1826       C  0.49858977  0.86490112  0.65783484    -0.12700
C1827       C  0.53106643  0.86351822  0.67523606     0.00900
C1828       C  0.53139209  0.85956001  0.71122648    -0.11200
C1829       C  0.99957448  0.85707677  0.73054036     0.03400
C1830       C  0.96736785  0.85532574  0.71160594    -0.10700
H1831       H  0.49827309  0.86881070  0.63017070     0.09000
H1832       H  0.55692932  0.86076054  0.72360956     0.06600
H1833       H  0.94231966  0.85061683  0.72423667     0.06400
C1834       C  0.53304895  0.86094746  0.82445315     0.03400
C1835       C  0.53234677  0.85536735  0.78860850    -0.12700
C1836       C  0.99991472  0.85699777  0.76968298     0.00900
C1837       C  0.96819163  0.86148215  0.78880189    -0.11200
C1838       C  0.96851012  0.86482861  0.82483793     0.03400
C1839       C  0.00100195  0.86553925  0.84227247    -0.10700
H1840       H  0.55754057  0.85157998  0.77603558     0.09000
H1841       H  0.94278963  0.86386687  0.77623223     0.06600
H1842       H  0.00135444  0.86935540  0.86994799     0.06400
O1843       O  0.65598320  0.89419342  0.91948782    -0.74100
O1844       O  0.56779745  0.88060026  0.87222825    -0.74100
O1845       O  0.60566407  0.84357936  0.91944945    -0.73400
O1846       O  0.61847753  0.93174733  0.87220439    -0.74300
O1847       O  0.64664345  0.90377611  0.82957104    -0.74200
O1848       O  0.63357718  0.81522630  0.87687056    -0.74200
O1849       O  0.59599721  0.85285280  0.82948476    -0.74100
O1850       O  0.68443952  0.86628912  0.87697244    -0.74200
Ni1851     Ni  0.61096194  0.88855778  0.89727751     1.25400
Ni1852     Ni  0.64121516  0.85850783  0.85171519     1.25400
C1853       C  0.68470697  0.88204259  0.90627978     0.88100
C1854       C  0.56726957  0.86471485  0.84301083     0.88000
C1855       C  0.61780620  0.81490827  0.90616429     0.88000
C1856       C  0.63440185  0.93237867  0.84301572     0.88200
C1857       C  0.71901436  0.61398091  0.57490816     0.03400
C1858       C  0.71864153  0.61052071  0.53889578    -0.12700
C1859       C  0.75035651  0.60671178  0.51963692     0.00900
C1860       C  0.78267839  0.60550801  0.53849176    -0.11200
C1861       C  0.78350350  0.61110156  0.57434017     0.03400
C1862       C  0.75150148  0.61511548  0.59230882    -0.10700
H1863       H  0.69312559  0.61228830  0.52649767     0.09000
H1864       H  0.80780058  0.60138515  0.52585272     0.06600
H1865       H  0.75184688  0.61884105  0.61999774     0.06400
C1866       C  0.78137613  0.61426357  0.92516621     0.03400
C1867       C  0.78160633  0.61056602  0.96117993    -0.12700
C1868       C  0.74980686  0.60647389  0.98030053     0.00900
C1869       C  0.71759440  0.60507891  0.96133825    -0.11200
C1870       C  0.71684619  0.61098050  0.92554004     0.03400
C1871       C  0.74890116  0.61537233  0.90769275    -0.10700
H1872       H  0.80705133  0.61242168  0.97371232     0.09000
H1873       H  0.69249383  0.60058270  0.97391480     0.06600
H1874       H  0.74860644  0.61934380  0.88003793     0.06400
C1875       C  0.61425953  0.71859405  0.57481311     0.03400
C1876       C  0.61086884  0.71830090  0.53878488    -0.12700
C1877       C  0.60669600  0.75005620  0.51964878     0.00900
C1878       C  0.60504546  0.78228625  0.53856368    -0.11200
C1879       C  0.61075776  0.78305791  0.57438383     0.03400
C1880       C  0.61508191  0.75104935  0.59227774    -0.10700
H1881       H  0.61303232  0.69287991  0.52626937     0.09000
H1882       H  0.60051190  0.80735616  0.52595180     0.06600
H1883       H  0.61884147  0.75136718  0.61996192     0.06400
C1884       C  0.61143442  0.71668747  0.92583202     0.03400
C1885       C  0.60600081  0.71746134  0.96170842    -0.12700
C1886       C  0.60663933  0.74981828  0.98057126     0.00900
C1887       C  0.60992411  0.78155820  0.96125050    -0.11200
C1888       C  0.61386178  0.78117338  0.92526611     0.03400
C1889       C  0.61531731  0.74869966  0.90788294    -0.10700
H1890       H  0.60237116  0.69225284  0.97430508     0.09000
H1891       H  0.61091759  0.80713889  0.97358335     0.06600
H1892       H  0.61914483  0.74837219  0.88020691     0.06400
C1893       C  0.96898774  0.63589869  0.67528106     0.03400
C1894       C  0.96870117  0.63957875  0.71129718    -0.12700
C1895       C  0.50044403  0.64364032  0.73032682     0.00900
C1896       C  0.53278169  0.64447039  0.71147551    -0.11200
C1897       C  0.53355987  0.63903493  0.67560064     0.03400
C1898       C  0.50155652  0.63530926  0.65761061    -0.10700
H1899       H  0.94321831  0.63791776  0.72377526     0.09000
H1900       H  0.55796568  0.64814215  0.72410988     0.06600
H1901       H  0.50189715  0.63157604  0.62992238     0.06400
C1902       C  0.53127363  0.63587531  0.82482879     0.03400
C1903       C  0.99905849  0.63485949  0.84235058    -0.12700
C1904       C  0.96705060  0.63902000  0.82444708     0.00900
C1905       C  0.96781087  0.64470301  0.78861095    -0.11200
C1906       C  0.00007871  0.64349779  0.76969402     0.03400
C1907       C  0.53164351  0.63998506  0.78885791    -0.10700
H1908       H  0.99873666  0.63101677  0.87002456     0.09000
H1909       H  0.94268158  0.64892016  0.77601109     0.06600
H1910       H  0.55722166  0.63905858  0.77651821     0.06400
C1911       C  0.63596878  0.96843204  0.67517199     0.03400
C1912       C  0.63962137  0.96814806  0.71118204    -0.12700
C1913       C  0.64272752  0.99997199  0.73042841     0.00900
C1914       C  0.64476184  0.53234620  0.71146760    -0.11200
C1915       C  0.63920068  0.53307434  0.67562428     0.03400
C1916       C  0.63454797  0.00087568  0.65772290    -0.10700
H1917       H  0.63846047  0.94261368  0.72355992     0.09000
H1918       H  0.64878226  0.55749447  0.72406951     0.06600
H1919       H  0.63153945  0.50131354  0.63002269     0.06400
C1920       C  0.63581918  0.53120743  0.82475603     0.03400
C1921       C  0.63371583  0.99858081  0.84229762    -0.12700
C1922       C  0.63780710  0.96656559  0.82440556     0.00900
C1923       C  0.64329503  0.96725780  0.78855600    -0.11200
C1924       C  0.64246133  0.99953855  0.76964715     0.03400
C1925       C  0.63943378  0.53148631  0.78873448    -0.10700
H1926       H  0.62992051  0.99828139  0.86997832     0.09000
H1927       H  0.64717909  0.94206911  0.77601832     0.06600
H1928       H  0.63754390  0.55693731  0.77624831     0.06400
O1929       O  0.61620801  0.56526844  0.87321090    -0.74100
O1930       O  0.60304741  0.65377345  0.92069752    -0.74100
O1931       O  0.56531303  0.61625830  0.87327354    -0.74200
O1932       O  0.65386260  0.60288111  0.92059834    -0.74300
O1933       O  0.68195219  0.63074082  0.87786223    -0.74200
O1934       O  0.59368569  0.64429664  0.83078906    -0.74200
O1935       O  0.63108465  0.68186512  0.87806804    -0.74100
O1936       O  0.64398423  0.59369265  0.83059640    -0.74200
Ni1937     Ni  0.60857348  0.60851919  0.89845821     1.25400
Ni1938     Ni  0.63870504  0.63868256  0.85290114     1.25400
C1939       C  0.63186066  0.56498530  0.84385527     0.88100
C1940       C  0.61511579  0.68245336  0.90724842     0.88000
C1941       C  0.56500862  0.63205575  0.84399109     0.88000
C1942       C  0.68256831  0.61476242  0.90703378     0.88200
O1943       O  0.63394586  0.68458309  0.62325027    -0.74100
O1944       O  0.64737561  0.59603380  0.67058874    -0.74100
O1945       O  0.68495925  0.63370791  0.62325021    -0.74200
O1946       O  0.59650816  0.64689594  0.67066230    -0.74300
O1947       O  0.56834443  0.61912943  0.62790813    -0.74200
O1948       O  0.65660732  0.60555261  0.58081596    -0.74200
O1949       O  0.61921217  0.56794973  0.62803143    -0.74100
O1950       O  0.60625568  0.65611713  0.58060428    -0.74200
Ni1951     Ni  0.64172460  0.64132980  0.64844915     1.25400
Ni1952     Ni  0.61156809  0.61115009  0.60290874     1.25400
C1953       C  0.61829493  0.68483942  0.59389438     0.88100
C1954       C  0.63534227  0.56733981  0.65712253     0.88000
C1955       C  0.68527374  0.61784456  0.59401509     0.88000
C1956       C  0.56778934  0.63508730  0.65709865     0.88200
O1957       O  0.81835657  0.63095395  0.62198252    -0.74100
O1958       O  0.90650352  0.64406461  0.66941598    -0.74100
O1959       O  0.86943046  0.68185866  0.62208117    -0.74200
O1960       O  0.85595996  0.59368805  0.66926483    -0.74300
O1961       O  0.88397659  0.56529194  0.62677147    -0.74200
O1962       O  0.89735958  0.65374837  0.57939607    -0.74200
O1963       O  0.93494347  0.61622048  0.62685221    -0.74100
O1964       O  0.84646381  0.60292524  0.57935640    -0.74200
Ni1965     Ni  0.86152935  0.63867815  0.64711566     1.25400
Ni1966     Ni  0.89171785  0.60851673  0.60158487     1.25400
C1967       C  0.81776557  0.61490693  0.59284445     0.88100
C1968       C  0.93521653  0.63193519  0.65617749     0.88000
C1969       C  0.88542327  0.68243958  0.59291449     0.88000
C1970       C  0.86816127  0.56500719  0.65603591     0.88200
C1971       C  0.88542966  0.78111458  0.57475732     0.03400
C1972       C  0.88448329  0.74865892  0.59220497    -0.12700
C1973       C  0.88912672  0.71666621  0.57437266     0.00900
C1974       C  0.89520552  0.71745166  0.53859987    -0.11200
C1975       C  0.89361361  0.74966734  0.51965561     0.03400
C1976       C  0.88912554  0.78142015  0.53874391    -0.10700
H1977       H  0.88048985  0.74833698  0.61985822     0.09000
H1978       H  0.90002189  0.69241221  0.52602035     0.06600
H1979       H  0.88700889  0.80682949  0.52618287     0.06400
C1980       C  0.88644557  0.71902526  0.92513430     0.03400
C1981       C  0.88506683  0.75151229  0.90774153    -0.12700
C1982       C  0.88872439  0.78353882  0.92572929     0.00900
C1983       C  0.89395054  0.78274871  0.96164041    -0.11200
C1984       C  0.89324666  0.75037435  0.98048208     0.03400
C1985       C  0.89011448  0.71864342  0.96113450    -0.10700
H1986       H  0.88139320  0.75184238  0.88004657     0.09000
H1987       H  0.89742871  0.80795779  0.97428444     0.06600
H1988       H  0.88898636  0.69306073  0.97345220     0.06400
C1989       C  0.86426724  0.53128315  0.67514284     0.03400
C1990       C  0.86526109  0.99849575  0.65798853    -0.12700
C1991       C  0.86115917  0.96649858  0.67598984     0.00900
C1992       C  0.85527791  0.96738305  0.71178563    -0.11200
C1993       C  0.85623061  0.99975052  0.73056088     0.03400
C1994       C  0.86086879  0.53164860  0.71116817    -0.10700
H1995       H  0.86921828  0.99809989  0.63033338     0.09000
H1996       H  0.85104099  0.94229743  0.72444997     0.06600
H1997       H  0.86261685  0.55714586  0.72358273     0.06400
C1998       C  0.86177115  0.53353612  0.82437346     0.03400
C1999       C  0.85622890  0.53276370  0.78850810    -0.12700
C2000       C  0.85604727  0.00035550  0.76974431     0.00900
C2001       C  0.86008256  0.96869564  0.78904232    -0.11200
C2002       C  0.86351745  0.96913858  0.82506146     0.03400
C2003       C  0.86449529  0.00167037  0.84238636    -0.10700
H2004       H  0.85207234  0.55788653  0.77589925     0.09000
H2005       H  0.86208843  0.94319784  0.77666087     0.06600
H2006       H  0.86827929  0.00209065  0.87006641     0.06400
O2007       O  0.86661927  0.68495847  0.87680871    -0.74100
O2008       O  0.85335735  0.59643992  0.82944517    -0.74100
O2009       O  0.81556963  0.63400583  0.87680361    -0.74200
O2010       O  0.90415123  0.64728316  0.82948867    -0.74300
O2011       O  0.93221632  0.61926791  0.87215045    -0.74200
O2012       O  0.84393052  0.60619926  0.91943304    -0.74200
O2013       O  0.88119602  0.56835241  0.87220021    -0.74100
O2014       O  0.89457460  0.65657176  0.91933913    -0.74200
Ni2015     Ni  0.85888689  0.64170040  0.85163518     1.25400
Ni2016     Ni  0.88899878  0.61156386  0.89722332     1.25400
C2017       C  0.88247110  0.68526988  0.90605696     0.88100
C2018       C  0.86533806  0.56776289  0.84296542     0.88000
C2019       C  0.81522179  0.61829368  0.90612967     0.88000
C2020       C  0.93282354  0.63528076  0.84299199     0.88200
O2021       O  0.85302007  0.90348703  0.67105665    -0.74100
O2022       O  0.86580686  0.81508266  0.62325729    -0.74100
O2023       O  0.90369471  0.85244724  0.67071172    -0.74200
O2024       O  0.81505292  0.86620334  0.62359438    -0.74300
O2025       O  0.84346237  0.89409668  0.58104008    -0.74200
O2026       O  0.93171202  0.88051872  0.62805688    -0.74200
O2027       O  0.89373108  0.84353178  0.58074520    -0.74100
O2028       O  0.88087028  0.93160328  0.62833013    -0.74200
Ni2029     Ni  0.85836392  0.85826438  0.64867427     1.25400
Ni2030     Ni  0.88847540  0.88846400  0.60312362     1.25400
C2031       C  0.86495950  0.93219318  0.65753470     0.88100
C2032       C  0.88147962  0.81484042  0.59390792     0.88000
C2033       C  0.93235394  0.86450571  0.65720629     0.88000
C2034       C  0.81476857  0.88194383  0.59427802     0.88200
O2035       O  0.89687154  0.84650618  0.92068866    -0.74100
O2036       O  0.88328017  0.93513442  0.87350078    -0.74100
O2037       O  0.84589397  0.89721957  0.92077596    -0.74200
O2038       O  0.93443119  0.88435663  0.87332579    -0.74300
O2039       O  0.90608668  0.85641845  0.83075755    -0.74200
O2040       O  0.81783116  0.86928405  0.87806428    -0.74200
O2041       O  0.85546653  0.90669279  0.83091616    -0.74100
O2042       O  0.86895827  0.81839652  0.87799555    -0.74200
Ni2043     Ni  0.89115105  0.89182400  0.89858681     1.25400
Ni2044     Ni  0.86106177  0.86165822  0.85300113     1.25400
C2045       C  0.88492792  0.81780052  0.90717850     0.88100
C2046       C  0.86752908  0.93541156  0.84419811     0.88000
C2047       C  0.81721753  0.88526581  0.90723186     0.88000
C2048       C  0.93475045  0.86869245  0.84397710     0.88200
loop_ 
_geom_bond_atom_site_label_1 
_geom_bond_atom_site_label_2 
_geom_bond_distance 
_geom_bond_site_symmetry_2 
_ccdc_geom_bond_type 
O1           Ni9   1.920       .  S
O1           C11   1.282       .  A
O2           Ni9   1.921       .  S
O2           C12   1.283       .  A
O3           Ni9   1.920       .  S
O3           C13   1.282       .  A
O4           Ni9   1.921       .  S
O4           C14   1.283       .  A
O5          Ni10   1.911       .  S
O5           C14   1.280       .  A
O6          Ni10   1.916       .  S
O6           C13   1.282       .  A
O7          Ni10   1.910       .  S
O7           C12   1.280       .  A
O8          Ni10   1.917       .  S
O8           C11   1.282       .  A
Ni9         Ni10   2.387       .  S
C11          C87   1.483       .  S
C12         C119   1.478       .  S
C13          C15   1.482       .  S
C14          C35   1.479       .  S
C15          C16   1.408       .  A
C15          C20   1.399       .  A
C16          C17   1.420       .  A
C16          H21   1.076       .  S
C17         C282   1.522   1_554  S
C17          C18   1.415       .  A
C18          C19   1.404       .  A
C18          H22   1.076       .  S
C19         C242   1.477       .  S
C19          C20   1.397       .  A
C20          H23   1.084       .  S
C24         C255   1.482       .  S
C24          C25   1.407       .  A
C24          C29   1.399       .  A
C25          C26   1.419       .  A
C25          H30   1.076       .  S
C26         C273   1.522       .  S
C26          C27   1.416       .  A
C27          C28   1.405       .  A
C27          H31   1.076       .  S
C28          C61   1.479       .  S
C28          C29   1.397       .  A
C29          H32   1.084       .  S
C33         C241   1.482       .  S
C33          C38   1.407       .  A
C33        C1058   1.400       .  A
C34          C35   1.397   1_655  A
C34        C1057   1.399       .  A
C34          H39   1.084       .  S
C35          C36   1.405       .  A
C36        C1061   1.416   1_455  A
C36          H40   1.076       .  S
C37          C44   1.521       .  S
C37          C38   1.419       .  A
C37        C1060   1.416       .  A
C38          H41   1.076       .  S
C42          C62   1.483       .  S
C42          C43   1.408       .  A
C42        C1071   1.400       .  A
C43        C1068   1.420   1_455  A
C43          H48   1.076       .  S
C44          C45   1.416       .  A
C44        C1067   1.419       .  A
C45          C46   1.404       .  A
C45          H49   1.076       .  S
C46         C256   1.478       .  S
C46          C47   1.397       .  A
C47        C1066   1.399       .  A
C47          H50   1.084       .  S
O51         Ni59   1.912       .  S
O51          C61   1.280       .  A
O52         Ni59   1.917       .  S
O52          C62   1.282       .  A
O53         Ni59   1.911       .  S
O53          C63   1.280       .  A
O54         Ni59   1.917       .  S
O54          C64   1.282       .  A
O55         Ni60   1.918       .  S
O55          C64   1.281       .  A
O56         Ni60   1.920       .  S
O56          C63   1.282       .  A
O57         Ni60   1.920       .  S
O57          C62   1.282       .  A
O58         Ni60   1.921       .  S
O58          C61   1.283       .  A
Ni59        Ni60   2.387       .  S
C63          C96   1.479       .  S
C64         C130   1.481       .  S
C65         C163   1.478       .  S
C65          C66   1.404       .  A
C65          C70   1.398       .  A
C66          C67   1.414       .  A
C66          H71   1.076       .  S
C67         C332   1.521   1_554  S
C67          C68   1.420       .  A
C68          C69   1.408       .  A
C68          H72   1.076       .  S
C69         C175   1.484       .  S
C69          C70   1.401       .  A
C70          H73   1.084       .  S
C74         C227   1.478       .  S
C74          C75   1.405       .  A
C74          C79   1.397       .  A
C75          C76   1.417       .  A
C75          H80   1.076       .  S
C76         C323   1.522       .  S
C76          C77   1.419       .  A
C77          C78   1.407       .  A
C77          H81   1.076       .  S
C78         C150   1.481       .  S
C78          C79   1.399       .  A
C79          H82   1.084       .  S
C83         C161   1.478       .  S
C83          C84   1.404       .  A
C83          C88   1.397       .  A
C84          C85   1.415       .  A
C84          H89   1.076       .  S
C85         C350   1.521   1_554  S
C85          C86   1.420       .  A
C86          C87   1.407       .  A
C86          H90   1.076       .  S
C87          C88   1.400       .  A
C88          H91   1.084       .  S
C92         C148   1.482       .  S
C92          C93   1.408       .  A
C92          C97   1.399       .  A
C93          C94   1.420       .  A
C93          H98   1.075       .  S
C94         C341   1.524       .  S
C94          C95   1.416       .  A
C95          C96   1.405       .  A
C95          H99   1.075       .  S
C96          C97   1.397       .  A
C97         H100   1.084       .  S
C101        C176   1.479       .  S
C101        C102   1.405       .  A
C101       C1130   1.397       .  A
C102       C1127   1.416       .  A
C102        H107   1.076       .  S
C103       C1138   1.523   1_455  S
C103        C104   1.420       .  A
C103       C1126   1.416   1_455  A
C104        C105   1.407       .  A
C104        H108   1.076       .  S
C105        C164   1.481       .  S
C105        C106   1.399       .  A
C106       C1125   1.397   1_455  A
C106        H109   1.084       .  S
C110        C149   1.479       .  S
C110        C115   1.404       .  A
C110       C1135   1.398   1_455  A
C111        C112   1.400       .  A
C111       C1134   1.397       .  A
C111        H116   1.084       .  S
C112        C228   1.482       .  S
C112        C113   1.407       .  A
C113        C114   1.419       .  A
C113        H117   1.077       .  S
C114       C1127   1.520       .  S
C114       C1139   1.415       .  A
C115       C1138   1.416   1_455  A
C115        H118   1.075       .  S
C119        C120   1.405       .  A
C119        C124   1.396       .  A
C120        C121   1.416       .  A
C120        H125   1.075       .  S
C121        C132   1.524       .  S
C121        C634   1.420       .  A
C122        C123   1.407       .  A
C122        C633   1.419       .  A
C122        H126   1.076       .  S
C123        C162   1.481       .  S
C123        C636   1.399       .  A
C124        C635   1.399       .  A
C124        H639   1.084       .  S
H127        C636   1.084       .  S
C128        C147   1.477       .  S
C128        C133   1.404       .  A
C128        C641   1.397   1_545  A
C129        C130   1.399       .  A
C129        C640   1.397       .  A
C129        H134   1.084       .  S
C130        C131   1.407       .  A
C131        C132   1.420       .  A
C131        H135   1.076       .  S
C132        C645   1.417       .  A
C133        C644   1.415   1_545  A
C133        H136   1.076       .  S
O137       Ni145   1.919       .  S
O137        C147   1.282       .  A
O138       Ni145   1.919       .  S
O138        C148   1.282       .  A
O139       Ni145   1.920       .  S
O139        C149   1.282       .  A
O140       Ni145   1.918       .  S
O140        C150   1.281       .  A
O141       Ni146   1.917       .  S
O141        C150   1.282       .  A
O142       Ni146   1.912       .  S
O142        C149   1.281       .  A
O143       Ni146   1.917       .  S
O143        C148   1.282       .  A
O144       Ni146   1.911       .  S
O144        C147   1.280       .  A
Ni145      Ni146   2.388       .  S
O151       Ni159   1.920       .  S
O151        C161   1.282       .  A
O152       Ni159   1.919       .  S
O152        C162   1.282       .  A
O153       Ni159   1.920       .  S
O153        C163   1.282       .  A
O154       Ni159   1.918       .  S
O154        C164   1.281       .  A
O155       Ni160   1.917       .  S
O155        C164   1.282       .  A
O156       Ni160   1.911       .  S
O156        C163   1.281       .  A
O157       Ni160   1.916       .  S
O157        C162   1.282       .  A
O158       Ni160   1.911       .  S
O158        C161   1.280       .  A
Ni159      Ni160   2.388       .  S
O165       Ni173   1.917       .  S
O165        C175   1.282       .  A
O166       Ni173   1.911       .  S
O166        C176   1.280       .  A
O167       Ni173   1.917       .  S
O167        C177   1.282       .  A
O168       Ni173   1.911       .  S
O168        C178   1.280       .  A
O169       Ni174   1.921       .  S
O169        C178   1.282       .  A
O170       Ni174   1.920       .  S
O170        C177   1.282       .  A
O171       Ni174   1.923       .  S
O171        C176   1.283       .  A
O172       Ni174   1.922       .  S
O172        C175   1.282       .  A
Ni173      Ni174   2.387       .  S
C177        C181   1.483       .  S
C178        C197   1.478       .  S
C179        C240   1.478       .  S
C179        C180   1.397       .  A
C179        C184   1.404       .  A
C180        C181   1.400       .  A
C180        H185   1.084       .  S
C181        C182   1.408       .  A
C182        C183   1.420       .  A
C182        H186   1.077       .  S
C183        C448   1.521   1_554  S
C183        C184   1.415       .  A
C184        H187   1.076       .  S
C188        C225   1.479       .  S
C188        C189   1.397       .  A
C188        C193   1.405       .  A
C189        C190   1.399       .  A
C189        H194   1.084       .  S
C190        C253   1.482       .  S
C190        C191   1.408       .  A
C191        C192   1.420       .  A
C191        H195   1.075       .  S
C192        C439   1.524       .  S
C192        C193   1.417       .  A
C193        H196   1.075       .  S
C197        C202   1.404       .  A
C197        C710   1.397   1_545  A
C198        C199   1.399       .  A
C198        C709   1.397       .  A
C198        H203   1.084       .  S
C199        C239   1.482       .  S
C199        C200   1.407       .  A
C200        C201   1.420       .  A
C200        H204   1.076       .  S
C201        C208   1.521       .  S
C201        C714   1.415       .  A
C202        C713   1.416   1_545  A
C202        H205   1.076       .  S
C206        C226   1.482       .  S
C206        C207   1.407       .  A
C206        C723   1.399       .  A
C207        C720   1.419   1_545  A
C207        H212   1.076       .  S
C208        C209   1.415       .  A
C208        C719   1.420       .  A
C209        C210   1.404       .  A
C209        H213   1.076       .  S
C210        C254   1.477       .  S
C210        C211   1.397       .  A
C211        C718   1.399       .  A
C211        H214   1.084       .  S
O215       Ni223   1.921       .  S
O215        C225   1.283       .  A
O216       Ni223   1.919       .  S
O216        C226   1.282       .  A
O217       Ni223   1.921       .  S
O217        C227   1.283       .  A
O218       Ni223   1.920       .  S
O218        C228   1.282       .  A
O219       Ni224   1.916       .  S
O219        C228   1.282       .  A
O220       Ni224   1.911       .  S
O220        C227   1.280       .  A
O221       Ni224   1.917       .  S
O221        C226   1.282       .  A
O222       Ni224   1.912       .  S
O222        C225   1.280       .  A
Ni223      Ni224   2.387       .  S
O229       Ni237   1.920       .  S
O229        C239   1.282       .  A
O230       Ni237   1.921       .  S
O230        C240   1.282       .  A
O231       Ni237   1.920       .  S
O231        C241   1.282       .  A
O232       Ni237   1.921       .  S
O232        C242   1.282       .  A
O233       Ni238   1.910       .  S
O233        C242   1.280       .  A
O234       Ni238   1.916       .  S
O234        C241   1.282       .  A
O235       Ni238   1.910       .  S
O235        C240   1.280       .  A
O236       Ni238   1.916       .  S
O236        C239   1.282       .  A
Ni237      Ni238   2.388       .  S
O243       Ni251   1.919       .  S
O243        C253   1.282       .  A
O244       Ni251   1.919       .  S
O244        C254   1.282       .  A
O245       Ni251   1.918       .  S
O245        C255   1.281       .  A
O246       Ni251   1.919       .  S
O246        C256   1.282       .  A
O247       Ni252   1.911       .  S
O247        C256   1.280       .  A
O248       Ni252   1.917       .  S
O248        C255   1.282       .  A
O249       Ni252   1.910       .  S
O249        C254   1.280       .  A
O250       Ni252   1.917       .  S
O250        C253   1.282       .  A
Ni251      Ni252   2.388       .  S
O257       Ni265   1.919       .  S
O257        C267   1.282       .  A
O258       Ni265   1.921       .  S
O258        C268   1.282       .  A
O259       Ni265   1.919       .  S
O259        C269   1.281       .  A
O260       Ni265   1.921       .  S
O260        C270   1.282       .  A
O261       Ni266   1.913       .  S
O261        C270   1.281       .  A
O262       Ni266   1.917       .  S
O262        C269   1.282       .  A
O263       Ni266   1.911       .  S
O263        C268   1.280       .  A
O264       Ni266   1.918       .  S
O264        C267   1.282       .  A
Ni265      Ni266   2.387       .  S
C267        C343   1.483       .  S
C268        C375   1.478       .  S
C269        C271   1.482       .  S
C270        C291   1.480       .  S
C271        C272   1.407       .  A
C271        C276   1.399       .  A
C272        C273   1.419       .  A
C272        H277   1.076       .  S
C273        C274   1.417       .  A
C274        C275   1.405       .  A
C274        H278   1.076       .  S
C275        C498   1.479       .  S
C275        C276   1.397       .  A
C276        H279   1.084       .  S
C280        C511   1.483       .  S
C280        C281   1.408       .  A
C280        C285   1.400       .  A
C281        C282   1.420       .  A
C281        H286   1.076       .  S
C282        C283   1.415       .  A
C283        C284   1.404       .  A
C283        H287   1.076       .  S
C284        C317   1.478       .  S
C284        C285   1.397       .  A
C285        H288   1.084       .  S
C289        C497   1.483       .  S
C289       C1314   1.399       .  A
C289        C294   1.408       .  A
C290       C1313   1.400       .  A
C290        C291   1.398   1_655  A
C290        H295   1.084       .  S
C291        C292   1.405       .  A
C292       C1317   1.417       .  A
C292        H296   1.076       .  S
C293        C300   1.522       .  S
C293       C1316   1.416       .  A
C293        C294   1.420       .  A
C294        H297   1.076       .  S
C298        C318   1.482       .  S
C298        C299   1.407       .  A
C298       C1327   1.399       .  A
C299       C1324   1.419       .  A
C299        H304   1.076       .  S
C300       C1323   1.420       .  A
C300        C301   1.416       .  A
C301        C302   1.405       .  A
C301        H305   1.076       .  S
C302        C512   1.479       .  S
C302        C303   1.397       .  A
C303       C1322   1.400       .  A
C303        H306   1.084       .  S
O307       Ni315   1.911       .  S
O307        C317   1.280       .  A
O308       Ni315   1.917       .  S
O308        C318   1.282       .  A
O309       Ni315   1.911       .  S
O309        C319   1.280       .  A
O310       Ni315   1.916       .  S
O310        C320   1.282       .  A
O311       Ni316   1.920       .  S
O311        C320   1.282       .  A
O312       Ni316   1.921       .  S
O312        C319   1.282       .  A
O313       Ni316   1.919       .  S
O313        C318   1.282       .  A
O314       Ni316   1.921       .  S
O314        C317   1.282       .  A
Ni315      Ni316   2.387       .  S
C319        C352   1.478       .  S
C320        C386   1.482       .  S
C321        C419   1.479       .  S
C321        C322   1.405       .  A
C321        C326   1.397       .  A
C322        C323   1.417       .  A
C322        H327   1.076       .  S
C323        C324   1.419       .  A
C324        C325   1.407       .  A
C324        H328   1.076       .  S
C325        C431   1.481       .  S
C325        C326   1.399       .  A
C326        H329   1.084       .  S
C330        C483   1.478       .  S
C330        C331   1.404       .  A
C330        C335   1.398       .  A
C331        C332   1.414       .  A
C331        H336   1.076       .  S
C332        C333   1.421       .  A
C333        C334   1.408       .  A
C333        H337   1.076       .  S
C334        C406   1.485       .  S
C334        C335   1.400       .  A
C335        H338   1.084       .  S
C339        C417   1.479       .  S
C339        C340   1.405       .  A
C339        C344   1.397       .  A
C340        C341   1.416       .  A
C340        H345   1.075       .  S
C341        C342   1.420       .  A
C342        C343   1.408       .  A
C342        H346   1.075       .  S
C343        C344   1.399       .  A
C344        H347   1.084       .  S
C348        C404   1.483       .  S
C348        C349   1.408       .  A
C348        C353   1.400       .  A
C349        C350   1.420       .  A
C349        H354   1.076       .  S
C350        C351   1.415       .  A
C351        C352   1.404       .  A
C351        H355   1.076       .  S
C352        C353   1.397       .  A
C353        H356   1.084       .  S
C357        C432   1.478       .  S
C357        C358   1.404       .  A
C357       C1386   1.397       .  A
C358       C1383   1.416       .  A
C358        H363   1.075       .  S
C359       C1394   1.521   1_455  S
C359       C1382   1.416   1_455  A
C359        C360   1.419       .  A
C360        C361   1.407       .  A
C360        H364   1.076       .  S
C361        C420   1.483       .  S
C361        C362   1.400       .  A
C362       C1381   1.398   1_455  A
C362        H365   1.084       .  S
C366        C405   1.478       .  S
C366       C1391   1.397   1_455  A
C366        C371   1.405       .  A
C367       C1390   1.397       .  A
C367        C368   1.399       .  A
C367        H372   1.084       .  S
C368        C484   1.482       .  S
C368        C369   1.407       .  A
C369        C370   1.420       .  A
C369        H373   1.076       .  S
C370       C1383   1.523       .  S
C370       C1395   1.416       .  A
C371       C1394   1.416   1_455  A
C371        H374   1.076       .  S
C375        C376   1.404       .  A
C375        C380   1.397       .  A
C376        C377   1.415       .  A
C376        H381   1.076       .  S
C377        C388   1.521       .  S
C377        C890   1.420       .  A
C378        C889   1.420       .  A
C378        C379   1.408       .  A
C378        H382   1.076       .  S
C379        C418   1.483       .  S
C379        C892   1.400       .  A
C380        C891   1.400       .  A
C380        H895   1.084       .  S
H383        C892   1.084       .  S
C384        C403   1.478       .  S
C384        C897   1.397   1_545  A
C384        C389   1.405       .  A
C385        C896   1.397       .  A
C385        C386   1.399       .  A
C385        H390   1.084       .  S
C386        C387   1.408       .  A
C387        C388   1.420       .  A
C387        H391   1.076       .  S
C388        C901   1.415       .  A
C389        C900   1.415   1_545  A
C389        H392   1.076       .  S
O393       Ni401   1.922       .  S
O393        C403   1.283       .  A
O394       Ni401   1.920       .  S
O394        C404   1.282       .  A
O395       Ni401   1.922       .  S
O395        C405   1.283       .  A
O396       Ni401   1.923       .  S
O396        C406   1.282       .  A
O397       Ni402   1.917       .  S
O397        C406   1.282       .  A
O398       Ni402   1.910       .  S
O398        C405   1.280       .  A
O399       Ni402   1.917       .  S
O399        C404   1.282       .  A
O400       Ni402   1.911       .  S
O400        C403   1.280       .  A
Ni401      Ni402   2.387       .  S
O407       Ni415   1.920       .  S
O407        C417   1.282       .  A
O408       Ni415   1.920       .  S
O408        C418   1.281       .  A
O409       Ni415   1.922       .  S
O409        C419   1.283       .  A
O410       Ni415   1.921       .  S
O410        C420   1.282       .  A
O411       Ni416   1.917       .  S
O411        C420   1.282       .  A
O412       Ni416   1.911       .  S
O412        C419   1.280       .  A
O413       Ni416   1.917       .  S
O413        C418   1.282       .  A
O414       Ni416   1.911       .  S
O414        C417   1.280       .  A
Ni415      Ni416   2.387       .  S
O421       Ni429   1.917       .  S
O421        C431   1.282       .  A
O422       Ni429   1.911       .  S
O422        C432   1.280       .  A
O423       Ni429   1.917       .  S
O423        C433   1.282       .  A
O424       Ni429   1.912       .  S
O424        C434   1.280       .  A
O425       Ni430   1.921       .  S
O425        C434   1.283       .  A
O426       Ni430   1.920       .  S
O426        C433   1.282       .  A
O427       Ni430   1.919       .  S
O427        C432   1.282       .  A
O428       Ni430   1.918       .  S
O428        C431   1.281       .  A
Ni429      Ni430   2.387       .  S
C433        C437   1.483       .  S
C434        C453   1.479       .  S
C435        C496   1.480       .  S
C435        C436   1.398       .  A
C435        C440   1.405       .  A
C436        C437   1.400       .  A
C436        H441   1.084       .  S
C437        C438   1.407       .  A
C438        C439   1.420       .  A
C438        H442   1.075       .  S
C439        C440   1.417       .  A
C440        H443   1.075       .  S
C444        C481   1.478       .  S
C444        C445   1.397       .  A
C444        C449   1.404       .  A
C445        C446   1.399       .  A
C445        H450   1.084       .  S
C446        C509   1.483       .  S
C446        C447   1.408       .  A
C447        C448   1.420       .  A
C447        H451   1.077       .  S
C448        C449   1.415       .  A
C449        H452   1.076       .  S
C453        C966   1.397   1_545  A
C453        C458   1.405       .  A
C454        C965   1.397       .  A
C454        C455   1.399       .  A
C454        H459   1.084       .  S
C455        C495   1.482       .  S
C455        C456   1.407       .  A
C456        C457   1.419       .  A
C456        H460   1.076       .  S
C457        C464   1.521       .  S
C457        C970   1.416       .  A
C458        C969   1.416   1_545  A
C458        H461   1.075       .  S
C462        C482   1.482       .  S
C462        C463   1.407       .  A
C462        C979   1.400       .  A
C463        C976   1.419       .  A
C463        H468   1.076       .  S
C464        C975   1.419       .  A
C464        C465   1.416       .  A
C465        C466   1.405       .  A
C465        H469   1.076       .  S
C466        C510   1.478       .  S
C466        C467   1.397       .  A
C467        C974   1.400       .  A
C467        H470   1.084       .  S
O471       Ni479   1.920       .  S
O471        C481   1.282       .  A
O472       Ni479   1.919       .  S
O472        C482   1.282       .  A
O473       Ni479   1.920       .  S
O473        C483   1.282       .  A
O474       Ni479   1.919       .  S
O474        C484   1.282       .  A
O475       Ni480   1.917       .  S
O475        C484   1.282       .  A
O476       Ni480   1.911       .  S
O476        C483   1.280       .  A
O477       Ni480   1.917       .  S
O477        C482   1.282       .  A
O478       Ni480   1.911       .  S
O478        C481   1.280       .  A
Ni479      Ni480   2.388       .  S
O485       Ni493   1.920       .  S
O485        C495   1.282       .  A
O486       Ni493   1.922       .  S
O486        C496   1.283       .  A
O487       Ni493   1.920       .  S
O487        C497   1.282       .  A
O488       Ni493   1.921       .  S
O488        C498   1.283       .  A
O489       Ni494   1.912       .  S
O489        C498   1.280       .  A
O490       Ni494   1.918       .  S
O490        C497   1.282       .  A
O491       Ni494   1.913       .  S
O491        C496   1.281       .  A
O492       Ni494   1.918       .  S
O492        C495   1.282       .  A
Ni493      Ni494   2.387       .  S
O499       Ni507   1.919       .  S
O499        C509   1.281       .  A
O500       Ni507   1.921       .  S
O500        C510   1.282       .  A
O501       Ni507   1.921       .  S
O501        C511   1.282       .  A
O502       Ni507   1.922       .  S
O502        C512   1.283       .  A
O503       Ni508   1.911       .  S
O503        C512   1.280       .  A
O504       Ni508   1.917       .  S
O504        C511   1.282       .  A
O505       Ni508   1.912       .  S
O505        C510   1.280       .  A
O506       Ni508   1.918       .  S
O506        C509   1.282       .  A
Ni507      Ni508   2.387       .  S
O513       Ni521   1.920       .  S
O513        C523   1.282       .  A
O514       Ni521   1.920       .  S
O514        C524   1.282       .  A
O515       Ni521   1.919       .  S
O515        C525   1.282       .  A
O516       Ni521   1.921       .  S
O516        C526   1.283       .  A
O517       Ni522   1.911       .  S
O517        C526   1.280       .  A
O518       Ni522   1.917       .  S
O518        C525   1.282       .  A
O519       Ni522   1.910       .  S
O519        C524   1.280       .  A
O520       Ni522   1.918       .  S
O520        C523   1.282       .  A
Ni521      Ni522   2.387       .  S
C523        C599   1.483       .  S
C524        C631   1.477       .  S
C525        C527   1.482       .  S
C526        C547   1.478       .  S
C527        C528   1.407       .  A
C527        C532   1.400       .  A
C528        C529   1.419       .  A
C528        H533   1.076       .  S
C529        C794   1.523   1_554  S
C529        C530   1.417       .  A
C530        C531   1.406       .  A
C530        H534   1.076       .  S
C531        C754   1.480       .  S
C531        C532   1.397       .  A
C532        H535   1.084       .  S
C536        C767   1.482       .  S
C536        C537   1.407       .  A
C536        C541   1.399       .  A
C537        C538   1.420       .  A
C537        H542   1.076       .  S
C538        C785   1.523       .  S
C538        C539   1.416       .  A
C539        C540   1.404       .  A
C539        H543   1.075       .  S
C540        C573   1.478       .  S
C540        C541   1.397       .  A
C541        H544   1.084       .  S
C545        C753   1.483       .  S
C545       C1570   1.401       .  A
C545        C550   1.407       .  A
C546       C1569   1.400       .  A
C546        C547   1.397   1_655  A
C546        H551   1.084       .  S
C547        C548   1.404       .  A
C548       C1573   1.416       .  A
C548        H552   1.076       .  S
C549        C556   1.520       .  S
C549       C1572   1.415       .  A
C549        C550   1.419       .  A
C550        H553   1.076       .  S
C554        C574   1.483       .  S
C554        C555   1.408       .  A
C554       C1583   1.400       .  A
C555       C1580   1.420       .  A
C555        H560   1.076       .  S
C556       C1579   1.420       .  A
C556        C557   1.415       .  A
C557        C558   1.404       .  A
C557        H561   1.076       .  S
C558        C768   1.477       .  S
C558        C559   1.397       .  A
C559       C1578   1.399       .  A
C559        H562   1.084       .  S
O563       Ni571   1.910       .  S
O563        C573   1.280       .  A
O564       Ni571   1.917       .  S
O564        C574   1.282       .  A
O565       Ni571   1.912       .  S
O565        C575   1.280       .  A
O566       Ni571   1.917       .  S
O566        C576   1.282       .  A
O567       Ni572   1.920       .  S
O567        C576   1.282       .  A
O568       Ni572   1.922       .  S
O568        C575   1.283       .  A
O569       Ni572   1.920       .  S
O569        C574   1.282       .  A
O570       Ni572   1.920       .  S
O570        C573   1.282       .  A
Ni571      Ni572   2.387       .  S
C575        C608   1.480       .  S
C576        C642   1.482       .  S
C577        C675   1.479       .  S
C577        C578   1.405       .  A
C577        C582   1.398       .  A
C578        C579   1.416       .  A
C578        H583   1.076       .  S
C579        C844   1.521   1_554  S
C579        C580   1.419       .  A
C580        C581   1.407       .  A
C580        H584   1.076       .  S
C581        C687   1.483       .  S
C581        C582   1.400       .  A
C582        H585   1.084       .  S
C586        C739   1.478       .  S
C586        C587   1.404       .  A
C586        C591   1.397       .  A
C587        C588   1.416       .  A
C587        H592   1.076       .  S
C588        C835   1.522       .  S
C588        C589   1.420       .  A
C589        C590   1.407       .  A
C589        H593   1.076       .  S
C590        C662   1.482       .  S
C590        C591   1.399       .  A
C591        H594   1.084       .  S
C595        C673   1.479       .  S
C595        C596   1.404       .  A
C595        C600   1.398       .  A
C596        C597   1.416       .  A
C596        H601   1.075       .  S
C597        C862   1.523   1_554  S
C597        C598   1.420       .  A
C598        C599   1.407       .  A
C598        H602   1.076       .  S
C599        C600   1.400       .  A
C600        H603   1.084       .  S
C604        C660   1.484       .  S
C604        C605   1.408       .  A
C604        C609   1.400       .  A
C605        C606   1.420       .  A
C605        H610   1.076       .  S
C606        C853   1.522       .  S
C606        C607   1.416       .  A
C607        C608   1.405       .  A
C607        H611   1.076       .  S
C608        C609   1.398       .  A
C609        H612   1.084       .  S
C613        C688   1.479       .  S
C613        C614   1.405       .  A
C613       C1642   1.397       .  A
C614       C1639   1.416       .  A
C614        H619   1.076       .  S
C615       C1650   1.521       .  S
C615       C1638   1.416       .  A
C615        C616   1.418   1_655  A
C616        C617   1.407       .  A
C616        H620   1.076       .  S
C617        C676   1.481       .  S
C617        C618   1.399       .  A
C618       C1637   1.396   1_455  A
C618        H621   1.084       .  S
C622        C661   1.479       .  S
C622       C1647   1.397   1_455  A
C622        C627   1.405       .  A
C623       C1646   1.397       .  A
C623        C624   1.399       .  A
C623        H628   1.084       .  S
C624        C740   1.482       .  S
C624        C625   1.407       .  A
C625        C626   1.419       .  A
C625        H629   1.076       .  S
C626       C1639   1.522       .  S
C626       C1651   1.416       .  A
C627       C1650   1.416   1_455  A
C627        H630   1.076       .  S
C631        C632   1.404       .  A
C631        C636   1.397   1_565  A
C632        C633   1.415   1_565  A
C632        H637   1.076       .  S
C633        C644   1.521   1_545  S
C634        C635   1.407       .  A
C634        H638   1.076       .  S
C635        C674   1.481       .  S
C640        C659   1.479       .  S
C640        C645   1.405       .  A
C641        C642   1.399       .  A
C641        H646   1.084       .  S
C642        C643   1.407       .  A
C643        C644   1.419       .  A
C643        H647   1.076       .  S
C645        H648   1.075       .  S
O649       Ni657   1.922       .  S
O649        C659   1.283       .  A
O650       Ni657   1.921       .  S
O650        C660   1.282       .  A
O651       Ni657   1.921       .  S
O651        C661   1.283       .  A
O652       Ni657   1.919       .  S
O652        C662   1.282       .  A
O653       Ni658   1.917       .  S
O653        C662   1.282       .  A
O654       Ni658   1.912       .  S
O654        C661   1.281       .  A
O655       Ni658   1.918       .  S
O655        C660   1.282       .  A
O656       Ni658   1.911       .  S
O656        C659   1.280       .  A
Ni657      Ni658   2.387       .  S
O663       Ni671   1.920       .  S
O663        C673   1.282       .  A
O664       Ni671   1.918       .  S
O664        C674   1.281       .  A
O665       Ni671   1.921       .  S
O665        C675   1.282       .  A
O666       Ni671   1.918       .  S
O666        C676   1.281       .  A
O667       Ni672   1.916       .  S
O667        C676   1.282       .  A
O668       Ni672   1.913       .  S
O668        C675   1.281       .  A
O669       Ni672   1.915       .  S
O669        C674   1.282       .  A
O670       Ni672   1.910       .  S
O670        C673   1.280       .  A
Ni671      Ni672   2.388       .  S
O677       Ni685   1.917       .  S
O677        C687   1.282       .  A
O678       Ni685   1.912       .  S
O678        C688   1.280       .  A
O679       Ni685   1.917       .  S
O679        C689   1.282       .  A
O680       Ni685   1.909       .  S
O680        C690   1.280       .  A
O681       Ni686   1.920       .  S
O681        C690   1.282       .  A
O682       Ni686   1.919       .  S
O682        C689   1.282       .  A
O683       Ni686   1.922       .  S
O683        C688   1.283       .  A
O684       Ni686   1.920       .  S
O684        C687   1.282       .  A
Ni685      Ni686   2.387       .  S
C689        C693   1.482       .  S
C690        C709   1.477       .  S
C691        C752   1.478       .  S
C691        C692   1.397       .  A
C691        C696   1.405       .  A
C692        C693   1.399       .  A
C692        H697   1.084       .  S
C693        C694   1.407       .  A
C694        C695   1.421       .  A
C694        H698   1.075       .  S
C695        C960   1.525   1_554  S
C695        C696   1.416       .  A
C696        H699   1.075       .  S
C700        C737   1.479       .  S
C700        C701   1.397       .  A
C700        C705   1.405       .  A
C701        C702   1.400       .  A
C701        H706   1.084       .  S
C702        C765   1.482       .  S
C702        C703   1.407       .  A
C703        C704   1.419       .  A
C703        H707   1.076       .  S
C704        C951   1.521       .  S
C704        C705   1.416       .  A
C705        H708   1.076       .  S
C709        C714   1.404       .  A
C710        C711   1.399       .  A
C710        H715   1.084       .  S
C711        C751   1.481       .  S
C711        C712   1.407       .  A
C712        C713   1.419       .  A
C712        H716   1.076       .  S
C713        C720   1.522       .  S
C714        H717   1.076       .  S
C718        C738   1.482       .  S
C718        C719   1.407       .  A
C719        H724   1.076       .  S
C720        C721   1.416       .  A
C721        C722   1.405       .  A
C721        H725   1.076       .  S
C722        C766   1.479       .  S
C722        C723   1.397   1_565  A
C723        H726   1.084       .  S
O727       Ni735   1.921       .  S
O727        C737   1.283       .  A
O728       Ni735   1.920       .  S
O728        C738   1.282       .  A
O729       Ni735   1.920       .  S
O729        C739   1.282       .  A
O730       Ni735   1.919       .  S
O730        C740   1.282       .  A
O731       Ni736   1.916       .  S
O731        C740   1.282       .  A
O732       Ni736   1.910       .  S
O732        C739   1.280       .  A
O733       Ni736   1.917       .  S
O733        C738   1.282       .  A
O734       Ni736   1.912       .  S
O734        C737   1.280       .  A
Ni735      Ni736   2.387       .  S
O741       Ni749   1.918       .  S
O741        C751   1.281       .  A
O742       Ni749   1.920       .  S
O742        C752   1.282       .  A
O743       Ni749   1.922       .  S
O743        C753   1.282       .  A
O744       Ni749   1.924       .  S
O744        C754   1.283       .  A
O745       Ni750   1.912       .  S
O745        C754   1.280       .  A
O746       Ni750   1.916       .  S
O746        C753   1.282       .  A
O747       Ni750   1.910       .  S
O747        C752   1.280       .  A
O748       Ni750   1.916       .  S
O748        C751   1.282       .  A
Ni749      Ni750   2.387       .  S
O755       Ni763   1.920       .  S
O755        C765   1.282       .  A
O756       Ni763   1.921       .  S
O756        C766   1.283       .  A
O757       Ni763   1.919       .  S
O757        C767   1.282       .  A
O758       Ni763   1.920       .  S
O758        C768   1.282       .  A
O759       Ni764   1.911       .  S
O759        C768   1.280       .  A
O760       Ni764   1.917       .  S
O760        C767   1.282       .  A
O761       Ni764   1.911       .  S
O761        C766   1.280       .  A
O762       Ni764   1.917       .  S
O762        C765   1.282       .  A
Ni763      Ni764   2.388       .  S
O769       Ni777   1.920       .  S
O769        C779   1.281       .  A
O770       Ni777   1.920       .  S
O770        C780   1.282       .  A
O771       Ni777   1.921       .  S
O771        C781   1.282       .  A
O772       Ni777   1.921       .  S
O772        C782   1.283       .  A
O773       Ni778   1.911       .  S
O773        C782   1.280       .  A
O774       Ni778   1.918       .  S
O774        C781   1.282       .  A
O775       Ni778   1.911       .  S
O775        C780   1.280       .  A
O776       Ni778   1.917       .  S
O776        C779   1.283       .  A
Ni777      Ni778   2.387       .  S
C779        C855   1.483       .  S
C780        C887   1.477       .  S
C781        C783   1.483       .  S
C782        C803   1.478       .  S
C783        C784   1.407       .  A
C783        C788   1.400       .  A
C784        C785   1.420       .  A
C784        H789   1.076       .  S
C785        C786   1.416       .  A
C786        C787   1.404       .  A
C786        H790   1.075       .  S
C787       C1010   1.479       .  S
C787        C788   1.397       .  A
C788        H791   1.084       .  S
C792       C1023   1.482       .  S
C792        C793   1.408       .  A
C792        C797   1.399       .  A
C793        C794   1.419       .  A
C793        H798   1.076       .  S
C794        C795   1.417       .  A
C795        C796   1.406       .  A
C795        H799   1.076       .  S
C796        C829   1.479       .  S
C796        C797   1.397       .  A
C797        H800   1.084       .  S
C801       C1009   1.482       .  S
C801       C1826   1.399       .  A
C801        C806   1.407       .  A
C802       C1825   1.400       .  A
C802        C803   1.397   1_655  A
C802        H807   1.084       .  S
C803        C804   1.404       .  A
C804       C1829   1.415   1_455  A
C804        H808   1.077       .  S
C805        C812   1.523       .  S
C805       C1828   1.416       .  A
C805        C806   1.420       .  A
C806        H809   1.075       .  S
C810        C830   1.482       .  S
C810        C811   1.407       .  A
C810       C1839   1.401       .  A
C811       C1836   1.419   1_455  A
C811        H816   1.077       .  S
C812       C1835   1.419       .  A
C812        C813   1.416       .  A
C813        C814   1.405       .  A
C813        H817   1.075       .  S
C814       C1024   1.479       .  S
C814        C815   1.397       .  A
C815       C1834   1.400       .  A
C815        H818   1.084       .  S
O819       Ni827   1.910       .  S
O819        C829   1.280       .  A
O820       Ni827   1.915       .  S
O820        C830   1.282       .  A
O821       Ni827   1.910       .  S
O821        C831   1.280       .  A
O822       Ni827   1.916       .  S
O822        C832   1.282       .  A
O823       Ni828   1.920       .  S
O823        C832   1.282       .  A
O824       Ni828   1.921       .  S
O824        C831   1.283       .  A
O825       Ni828   1.921       .  S
O825        C830   1.282       .  A
O826       Ni828   1.922       .  S
O826        C829   1.283       .  A
Ni827      Ni828   2.387       .  S
C831        C864   1.478       .  S
C832        C898   1.482       .  S
C833        C931   1.477       .  S
C833        C834   1.404       .  A
C833        C838   1.397       .  A
C834        C835   1.415       .  A
C834        H839   1.076       .  S
C835        C836   1.420       .  A
C836        C837   1.407       .  A
C836        H840   1.076       .  S
C837        C943   1.482       .  S
C837        C838   1.399       .  A
C838        H841   1.084       .  S
C842        C995   1.478       .  S
C842        C843   1.404       .  A
C842        C847   1.397       .  A
C843        C844   1.416       .  A
C843        H848   1.076       .  S
C844        C845   1.419       .  A
C845        C846   1.407       .  A
C845        H849   1.076       .  S
C846        C918   1.482       .  S
C846        C847   1.400       .  A
C847        H850   1.084       .  S
C851        C929   1.478       .  S
C851        C852   1.405       .  A
C851        C856   1.397       .  A
C852        C853   1.416       .  A
C852        H857   1.076       .  S
C853        C854   1.420       .  A
C854        C855   1.408       .  A
C854        H858   1.077       .  S
C855        C856   1.400       .  A
C856        H859   1.084       .  S
C860        C916   1.482       .  S
C860        C861   1.407       .  A
C860        C865   1.399       .  A
C861        C862   1.420       .  A
C861        H866   1.076       .  S
C862        C863   1.416       .  A
C863        C864   1.405       .  A
C863        H867   1.075       .  S
C864        C865   1.397       .  A
C865        H868   1.084       .  S
C869        C944   1.477       .  S
C869        C870   1.405       .  A
C869       C1898   1.397       .  A
C870       C1895   1.416       .  A
C870        H875   1.075       .  S
C871       C1906   1.522       .  S
C871       C1894   1.416   1_455  A
C871        C872   1.420       .  A
C872        C873   1.408       .  A
C872        H876   1.076       .  S
C873        C932   1.483       .  S
C873        C874   1.400       .  A
C874       C1893   1.397   1_455  A
C874        H877   1.084       .  S
C878        C917   1.478       .  S
C878       C1903   1.397   1_455  A
C878        C883   1.405       .  A
C879       C1902   1.396       .  A
C879        C880   1.399       .  A
C879        H884   1.084       .  S
C880        C996   1.482       .  S
C880        C881   1.408       .  A
C881        C882   1.420       .  A
C881        H885   1.076       .  S
C882       C1895   1.523       .  S
C882       C1907   1.416       .  A
C883       C1906   1.416       .  A
C883        H886   1.076       .  S
C887        C888   1.404       .  A
C887        C892   1.397   1_565  A
C888        C889   1.415   1_565  A
C888        H893   1.076       .  S
C889        C900   1.521   1_545  S
C890        C891   1.407       .  A
C890        H894   1.076       .  S
C891        C930   1.482       .  S
C896        C915   1.477       .  S
C896        C901   1.404       .  A
C897        C898   1.400       .  A
C897        H902   1.084       .  S
C898        C899   1.408       .  A
C899        C900   1.420       .  A
C899        H903   1.076       .  S
C901        H904   1.076       .  S
O905       Ni913   1.920       .  S
O905        C915   1.282       .  A
O906       Ni913   1.919       .  S
O906        C916   1.282       .  A
O907       Ni913   1.921       .  S
O907        C917   1.283       .  A
O908       Ni913   1.920       .  S
O908        C918   1.282       .  A
O909       Ni914   1.916       .  S
O909        C918   1.282       .  A
O910       Ni914   1.910       .  S
O910        C917   1.280       .  A
O911       Ni914   1.917       .  S
O911        C916   1.282       .  A
O912       Ni914   1.910       .  S
O912        C915   1.280       .  A
Ni913      Ni914   2.388       .  S
O919       Ni927   1.921       .  S
O919        C929   1.283       .  A
O920       Ni927   1.920       .  S
O920        C930   1.282       .  A
O921       Ni927   1.920       .  S
O921        C931   1.282       .  A
O922       Ni927   1.920       .  S
O922        C932   1.282       .  A
O923       Ni928   1.917       .  S
O923        C932   1.282       .  A
O924       Ni928   1.910       .  S
O924        C931   1.280       .  A
O925       Ni928   1.916       .  S
O925        C930   1.282       .  A
O926       Ni928   1.911       .  S
O926        C929   1.280       .  A
Ni927      Ni928   2.387       .  S
O933       Ni941   1.916       .  S
O933        C943   1.282       .  A
O934       Ni941   1.909       .  S
O934        C944   1.280       .  A
O935       Ni941   1.915       .  S
O935        C945   1.282       .  A
O936       Ni941   1.911       .  S
O936        C946   1.280       .  A
O937       Ni942   1.920       .  S
O937        C946   1.282       .  A
O938       Ni942   1.918       .  S
O938        C945   1.281       .  A
O939       Ni942   1.920       .  S
O939        C944   1.283       .  A
O940       Ni942   1.920       .  S
O940        C943   1.282       .  A
Ni941      Ni942   2.388       .  S
C945        C949   1.480       .  S
C946        C965   1.478       .  S
C947       C1008   1.478       .  S
C947        C948   1.397       .  A
C947        C952   1.405       .  A
C948        C949   1.399       .  A
C948        H953   1.084       .  S
C949        C950   1.407       .  A
C950        C951   1.418       .  A
C950        H954   1.076       .  S
C951        C952   1.416       .  A
C952        H955   1.076       .  S
C956        C993   1.479       .  S
C956        C957   1.397       .  A
C956        C961   1.405       .  A
C957        C958   1.399       .  A
C957        H962   1.084       .  S
C958       C1021   1.482       .  S
C958        C959   1.407       .  A
C959        C960   1.421       .  A
C959        H963   1.075       .  S
C960        C961   1.416       .  A
C961        H964   1.075       .  S
C965        C970   1.405       .  A
C966        C967   1.400       .  A
C966        H971   1.084       .  S
C967       C1007   1.482       .  S
C967        C968   1.407       .  A
C968        C969   1.419       .  A
C968        H972   1.076       .  S
C969        C976   1.522   1_565  S
C970        H973   1.076       .  S
C974        C994   1.482       .  S
C974        C975   1.408       .  A
C975        H980   1.076       .  S
C976        C977   1.416   1_545  A
C977        C978   1.404       .  A
C977        H981   1.075       .  S
C978       C1022   1.478       .  S
C978        C979   1.397   1_565  A
C979        H982   1.084       .  S
O983       Ni991   1.921       .  S
O983        C993   1.283       .  A
O984       Ni991   1.919       .  S
O984        C994   1.282       .  A
O985       Ni991   1.921       .  S
O985        C995   1.282       .  A
O986       Ni991   1.918       .  S
O986        C996   1.281       .  A
O987       Ni992   1.917       .  S
O987        C996   1.282       .  A
O988       Ni992   1.912       .  S
O988        C995   1.280       .  A
O989       Ni992   1.916       .  S
O989        C994   1.282       .  A
O990       Ni992   1.911       .  S
O990        C993   1.280       .  A
Ni991      Ni992   2.387       .  S
O997      Ni1005   1.920       .  S
O997       C1007   1.282       .  A
O998      Ni1005   1.921       .  S
O998       C1008   1.283       .  A
O999      Ni1005   1.920       .  S
O999       C1009   1.282       .  A
O1000     Ni1005   1.920       .  S
O1000      C1010   1.282       .  A
O1001     Ni1006   1.912       .  S
O1001      C1010   1.281       .  A
O1002     Ni1006   1.917       .  S
O1002      C1009   1.282       .  A
O1003     Ni1006   1.910       .  S
O1003      C1008   1.280       .  A
O1004     Ni1006   1.916       .  S
O1004      C1007   1.282       .  A
Ni1005    Ni1006   2.387       .  S
O1011     Ni1019   1.919       .  S
O1011      C1021   1.282       .  A
O1012     Ni1019   1.920       .  S
O1012      C1022   1.282       .  A
O1013     Ni1019   1.919       .  S
O1013      C1023   1.281       .  A
O1014     Ni1019   1.921       .  S
O1014      C1024   1.283       .  A
O1015     Ni1020   1.912       .  S
O1015      C1024   1.280       .  A
O1016     Ni1020   1.917       .  S
O1016      C1023   1.282       .  A
O1017     Ni1020   1.912       .  S
O1017      C1022   1.280       .  A
O1018     Ni1020   1.918       .  S
O1018      C1021   1.282       .  A
Ni1019    Ni1020   2.387       .  S
O1025     Ni1033   1.919       .  S
O1025      C1035   1.282       .  A
O1026     Ni1033   1.920       .  S
O1026      C1036   1.282       .  A
O1027     Ni1033   1.920       .  S
O1027      C1037   1.282       .  A
O1028     Ni1033   1.921       .  S
O1028      C1038   1.282       .  A
O1029     Ni1034   1.912       .  S
O1029      C1038   1.280       .  A
O1030     Ni1034   1.918       .  S
O1030      C1037   1.283       .  A
O1031     Ni1034   1.910       .  S
O1031      C1036   1.280       .  A
O1032     Ni1034   1.916       .  S
O1032      C1035   1.282       .  A
Ni1033    Ni1034   2.387       .  S
C1035      C1111   1.482       .  S
C1036      C1143   1.477       .  S
C1037      C1039   1.483       .  S
C1038      C1059   1.478       .  S
C1039      C1040   1.408       .  A
C1039      C1044   1.400       .  A
C1040      C1041   1.420       .  A
C1040      H1045   1.077       .  S
C1041      C1306   1.521   1_554  S
C1041      C1042   1.414       .  A
C1042      C1043   1.404       .  A
C1042      H1046   1.076       .  S
C1043      C1266   1.477       .  S
C1043      C1044   1.397       .  A
C1044      H1047   1.084       .  S
C1048      C1279   1.481       .  S
C1048      C1049   1.407       .  A
C1048      C1053   1.399       .  A
C1049      C1050   1.418       .  A
C1049      H1054   1.076       .  S
C1050      C1297   1.522       .  S
C1050      C1051   1.417       .  A
C1051      C1052   1.405       .  A
C1051      H1055   1.075       .  S
C1052      C1085   1.478       .  S
C1052      C1053   1.397       .  A
C1053      H1056   1.084       .  S
C1057      C1265   1.482       .  S
C1057      C1062   1.407       .  A
C1058      C1059   1.397       .  A
C1058      H1063   1.084       .  S
C1059      C1060   1.404       .  A
C1060      H1064   1.076       .  S
C1061      C1068   1.523       .  S
C1061      C1062   1.419       .  A
C1062      H1065   1.076       .  S
C1066      C1086   1.482       .  S
C1066      C1067   1.407       .  A
C1067      H1072   1.076       .  S
C1068      C1069   1.416       .  A
C1069      C1070   1.405       .  A
C1069      H1073   1.075       .  S
C1070      C1280   1.479       .  S
C1070      C1071   1.397   1_655  A
C1071      H1074   1.084       .  S
O1075     Ni1083   1.912       .  S
O1075      C1085   1.280       .  A
O1076     Ni1083   1.917       .  S
O1076      C1086   1.282       .  A
O1077     Ni1083   1.911       .  S
O1077      C1087   1.280       .  A
O1078     Ni1083   1.917       .  S
O1078      C1088   1.282       .  A
O1079     Ni1084   1.919       .  S
O1079      C1088   1.282       .  A
O1080     Ni1084   1.921       .  S
O1080      C1087   1.283       .  A
O1081     Ni1084   1.918       .  S
O1081      C1086   1.281       .  A
O1082     Ni1084   1.920       .  S
O1082      C1085   1.282       .  A
Ni1083    Ni1084   2.387       .  S
C1087      C1120   1.479       .  S
C1088      C1154   1.482       .  S
C1089      C1187   1.479       .  S
C1089      C1090   1.405       .  A
C1089      C1094   1.397       .  A
C1090      C1091   1.416       .  A
C1090      H1095   1.076       .  S
C1091      C1356   1.522   1_554  S
C1091      C1092   1.420       .  A
C1092      C1093   1.408       .  A
C1092      H1096   1.076       .  S
C1093      C1199   1.483       .  S
C1093      C1094   1.400       .  A
C1094      H1097   1.084       .  S
C1098      C1251   1.479       .  S
C1098      C1099   1.405       .  A
C1098      C1103   1.397       .  A
C1099      C1100   1.416       .  A
C1099      H1104   1.076       .  S
C1100      C1347   1.521       .  S
C1100      C1101   1.419       .  A
C1101      C1102   1.407       .  A
C1101      H1105   1.076       .  S
C1102      C1174   1.482       .  S
C1102      C1103   1.400       .  A
C1103      H1106   1.084       .  S
C1107      C1185   1.477       .  S
C1107      C1108   1.404       .  A
C1107      C1112   1.397       .  A
C1108      C1109   1.416       .  A
C1108      H1113   1.076       .  S
C1109      C1374   1.521   1_554  S
C1109      C1110   1.420       .  A
C1110      C1111   1.407       .  A
C1110      H1114   1.076       .  S
C1111      C1112   1.399       .  A
C1112      H1115   1.084       .  S
C1116      C1172   1.482       .  S
C1116      C1117   1.407       .  A
C1116      C1121   1.400       .  A
C1117      C1118   1.419       .  A
C1117      H1122   1.076       .  S
C1118      C1365   1.523       .  S
C1118      C1119   1.416       .  A
C1119      C1120   1.405       .  A
C1119      H1123   1.075       .  S
C1120      C1121   1.397       .  A
C1121      H1124   1.084       .  S
C1125      C1200   1.478       .  S
C1125      C1126   1.405       .  A
C1126      H1131   1.076       .  S
C1127      C1128   1.419       .  A
C1128      C1129   1.407       .  A
C1128      H1132   1.076       .  S
C1129      C1188   1.482       .  S
C1129      C1130   1.400       .  A
C1130      H1133   1.084       .  S
C1134      C1173   1.478       .  S
C1134      C1139   1.404       .  A
C1135      C1136   1.399       .  A
C1135      H1140   1.084       .  S
C1136      C1252   1.484       .  S
C1136      C1137   1.408       .  A
C1137      C1138   1.420       .  A
C1137      H1141   1.076       .  S
C1139      H1142   1.076       .  S
C1143      C1144   1.404       .  A
C1143      C1148   1.396       .  A
C1144      C1145   1.416       .  A
C1144      H1149   1.076       .  S
C1145      C1156   1.522       .  S
C1145      C1658   1.420       .  A
C1146      C1657   1.420       .  A
C1146      C1147   1.407       .  A
C1146      H1150   1.076       .  S
C1147      C1186   1.483       .  S
C1147      C1660   1.400       .  A
C1148      C1659   1.399       .  A
C1148      H1663   1.084       .  S
H1151      C1660   1.084       .  S
C1152      C1171   1.478       .  S
C1152      C1665   1.397   1_545  A
C1152      C1157   1.404       .  A
C1153      C1664   1.397       .  A
C1153      C1154   1.399       .  A
C1153      H1158   1.084       .  S
C1154      C1155   1.407       .  A
C1155      C1156   1.419       .  A
C1155      H1159   1.076       .  S
C1156      C1669   1.416       .  A
C1157      C1668   1.415   1_545  A
C1157      H1160   1.076       .  S
O1161     Ni1169   1.920       .  S
O1161      C1171   1.282       .  A
O1162     Ni1169   1.919       .  S
O1162      C1172   1.282       .  A
O1163     Ni1169   1.920       .  S
O1163      C1173   1.282       .  A
O1164     Ni1169   1.919       .  S
O1164      C1174   1.282       .  A
O1165     Ni1170   1.916       .  S
O1165      C1174   1.282       .  A
O1166     Ni1170   1.911       .  S
O1166      C1173   1.280       .  A
O1167     Ni1170   1.917       .  S
O1167      C1172   1.282       .  A
O1168     Ni1170   1.911       .  S
O1168      C1171   1.280       .  A
Ni1169    Ni1170   2.388       .  S
O1175     Ni1183   1.920       .  S
O1175      C1185   1.282       .  A
O1176     Ni1183   1.920       .  S
O1176      C1186   1.282       .  A
O1177     Ni1183   1.922       .  S
O1177      C1187   1.283       .  A
O1178     Ni1183   1.921       .  S
O1178      C1188   1.282       .  A
O1179     Ni1184   1.915       .  S
O1179      C1188   1.282       .  A
O1180     Ni1184   1.910       .  S
O1180      C1187   1.280       .  A
O1181     Ni1184   1.916       .  S
O1181      C1186   1.282       .  A
O1182     Ni1184   1.910       .  S
O1182      C1185   1.280       .  A
Ni1183    Ni1184   2.387       .  S
O1189     Ni1197   1.916       .  S
O1189      C1199   1.282       .  A
O1190     Ni1197   1.910       .  S
O1190      C1200   1.280       .  A
O1191     Ni1197   1.916       .  S
O1191      C1201   1.282       .  A
O1192     Ni1197   1.911       .  S
O1192      C1202   1.280       .  A
O1193     Ni1198   1.921       .  S
O1193      C1202   1.283       .  A
O1194     Ni1198   1.920       .  S
O1194      C1201   1.282       .  A
O1195     Ni1198   1.921       .  S
O1195      C1200   1.283       .  A
O1196     Ni1198   1.921       .  S
O1196      C1199   1.282       .  A
Ni1197    Ni1198   2.387       .  S
C1201      C1205   1.482       .  S
C1202      C1221   1.478       .  S
C1203      C1264   1.478       .  S
C1203      C1204   1.397       .  A
C1203      C1208   1.404       .  A
C1204      C1205   1.400       .  A
C1204      H1209   1.084       .  S
C1205      C1206   1.407       .  A
C1206      C1207   1.420       .  A
C1206      H1210   1.076       .  S
C1207      C1472   1.522   1_554  S
C1207      C1208   1.415       .  A
C1208      H1211   1.076       .  S
C1212      C1249   1.479       .  S
C1212      C1213   1.398       .  A
C1212      C1217   1.404       .  A
C1213      C1214   1.400       .  A
C1213      H1218   1.084       .  S
C1214      C1277   1.483       .  S
C1214      C1215   1.408       .  A
C1215      C1216   1.420       .  A
C1215      H1219   1.075       .  S
C1216      C1463   1.523       .  S
C1216      C1217   1.416       .  A
C1217      H1220   1.075       .  S
C1221      C1734   1.396   1_545  A
C1221      C1226   1.405       .  A
C1222      C1733   1.396       .  A
C1222      C1223   1.399       .  A
C1222      H1227   1.084       .  S
C1223      C1263   1.482       .  S
C1223      C1224   1.408       .  A
C1224      C1225   1.420       .  A
C1224      H1228   1.076       .  S
C1225      C1232   1.523       .  S
C1225      C1738   1.415       .  A
C1226      C1737   1.417   1_545  A
C1226      H1229   1.076       .  S
C1230      C1250   1.481       .  S
C1230      C1231   1.407       .  A
C1230      C1747   1.399       .  A
C1231      C1744   1.419   1_545  A
C1231      H1236   1.076       .  S
C1232      C1743   1.421       .  A
C1232      C1233   1.415       .  A
C1233      C1234   1.404       .  A
C1233      H1237   1.075       .  S
C1234      C1278   1.478       .  S
C1234      C1235   1.397       .  A
C1235      C1742   1.399       .  A
C1235      H1238   1.084       .  S
O1239     Ni1247   1.919       .  S
O1239      C1249   1.282       .  A
O1240     Ni1247   1.917       .  S
O1240      C1250   1.281       .  A
O1241     Ni1247   1.921       .  S
O1241      C1251   1.283       .  A
O1242     Ni1247   1.920       .  S
O1242      C1252   1.282       .  A
O1243     Ni1248   1.919       .  S
O1243      C1252   1.282       .  A
O1244     Ni1248   1.912       .  S
O1244      C1251   1.280       .  A
O1245     Ni1248   1.918       .  S
O1245      C1250   1.282       .  A
O1246     Ni1248   1.913       .  S
O1246      C1249   1.281       .  A
Ni1247    Ni1248   2.387       .  S
O1253     Ni1261   1.919       .  S
O1253      C1263   1.282       .  A
O1254     Ni1261   1.921       .  S
O1254      C1264   1.282       .  A
O1255     Ni1261   1.919       .  S
O1255      C1265   1.282       .  A
O1256     Ni1261   1.920       .  S
O1256      C1266   1.282       .  A
O1257     Ni1262   1.910       .  S
O1257      C1266   1.280       .  A
O1258     Ni1262   1.916       .  S
O1258      C1265   1.282       .  A
O1259     Ni1262   1.910       .  S
O1259      C1264   1.280       .  A
O1260     Ni1262   1.916       .  S
O1260      C1263   1.282       .  A
Ni1261    Ni1262   2.388       .  S
O1267     Ni1275   1.920       .  S
O1267      C1277   1.282       .  A
O1268     Ni1275   1.921       .  S
O1268      C1278   1.282       .  A
O1269     Ni1275   1.917       .  S
O1269      C1279   1.281       .  A
O1270     Ni1275   1.920       .  S
O1270      C1280   1.282       .  A
O1271     Ni1276   1.912       .  S
O1271      C1280   1.281       .  A
O1272     Ni1276   1.916       .  S
O1272      C1279   1.282       .  A
O1273     Ni1276   1.911       .  S
O1273      C1278   1.280       .  A
O1274     Ni1276   1.918       .  S
O1274      C1277   1.282       .  A
Ni1275    Ni1276   2.387       .  S
O1281     Ni1289   1.920       .  S
O1281      C1291   1.282       .  A
O1282     Ni1289   1.921       .  S
O1282      C1292   1.283       .  A
O1283     Ni1289   1.918       .  S
O1283      C1293   1.282       .  A
O1284     Ni1289   1.920       .  S
O1284      C1294   1.282       .  A
O1285     Ni1290   1.911       .  S
O1285      C1294   1.280       .  A
O1286     Ni1290   1.916       .  S
O1286      C1293   1.282       .  A
O1287     Ni1290   1.913       .  S
O1287      C1292   1.281       .  A
O1288     Ni1290   1.918       .  S
O1288      C1291   1.282       .  A
Ni1289    Ni1290   2.387       .  S
C1291      C1367   1.483       .  S
C1292      C1399   1.480       .  S
C1293      C1295   1.481       .  S
C1294      C1315   1.478       .  S
C1295      C1296   1.406       .  A
C1295      C1300   1.399       .  A
C1296      C1297   1.418       .  A
C1296      H1301   1.076       .  S
C1297      C1298   1.417       .  A
C1298      C1299   1.405       .  A
C1298      H1302   1.075       .  S
C1299      C1522   1.480       .  S
C1299      C1300   1.397       .  A
C1300      H1303   1.084       .  S
C1304      C1535   1.484       .  S
C1304      C1305   1.408       .  A
C1304      C1309   1.400       .  A
C1305      C1306   1.421       .  A
C1305      H1310   1.076       .  S
C1306      C1307   1.415       .  A
C1307      C1308   1.404       .  A
C1307      H1311   1.076       .  S
C1308      C1341   1.477       .  S
C1308      C1309   1.397       .  A
C1309      H1312   1.084       .  S
C1313      C1521   1.483       .  S
C1313      C1318   1.407       .  A
C1314      C1315   1.397       .  A
C1314      H1319   1.084       .  S
C1315      C1316   1.405       .  A
C1316      H1320   1.075       .  S
C1317      C1324   1.522       .  S
C1317      C1318   1.419   1_455  A
C1318      H1321   1.076       .  S
C1322      C1342   1.483       .  S
C1322      C1323   1.408       .  A
C1323      H1328   1.076       .  S
C1324      C1325   1.417   1_455  A
C1325      C1326   1.405       .  A
C1325      H1329   1.076       .  S
C1326      C1536   1.479       .  S
C1326      C1327   1.397   1_655  A
C1327      H1330   1.084       .  S
O1331     Ni1339   1.910       .  S
O1331      C1341   1.280       .  A
O1332     Ni1339   1.917       .  S
O1332      C1342   1.282       .  A
O1333     Ni1339   1.912       .  S
O1333      C1343   1.281       .  A
O1334     Ni1339   1.917       .  S
O1334      C1344   1.282       .  A
O1335     Ni1340   1.920       .  S
O1335      C1344   1.282       .  A
O1336     Ni1340   1.921       .  S
O1336      C1343   1.282       .  A
O1337     Ni1340   1.920       .  S
O1337      C1342   1.282       .  A
O1338     Ni1340   1.920       .  S
O1338      C1341   1.282       .  A
Ni1339    Ni1340   2.387       .  S
C1343      C1376   1.479       .  S
C1344      C1410   1.482       .  S
C1345      C1443   1.479       .  S
C1345      C1346   1.405       .  A
C1345      C1350   1.397       .  A
C1346      C1347   1.416       .  A
C1346      H1351   1.076       .  S
C1347      C1348   1.419       .  A
C1348      C1349   1.407       .  A
C1348      H1352   1.076       .  S
C1349      C1455   1.482       .  S
C1349      C1350   1.400       .  A
C1350      H1353   1.084       .  S
C1354      C1507   1.478       .  S
C1354      C1355   1.404       .  A
C1354      C1359   1.397       .  A
C1355      C1356   1.416       .  A
C1355      H1360   1.076       .  S
C1356      C1357   1.420       .  A
C1357      C1358   1.408       .  A
C1357      H1361   1.076       .  S
C1358      C1430   1.483       .  S
C1358      C1359   1.400       .  A
C1359      H1362   1.084       .  S
C1363      C1441   1.479       .  S
C1363      C1364   1.405       .  A
C1363      C1368   1.397       .  A
C1364      C1365   1.416       .  A
C1364      H1369   1.075       .  S
C1365      C1366   1.420       .  A
C1366      C1367   1.408       .  A
C1366      H1370   1.076       .  S
C1367      C1368   1.399       .  A
C1368      H1371   1.084       .  S
C1372      C1428   1.483       .  S
C1372      C1373   1.408       .  A
C1372      C1377   1.400       .  A
C1373      C1374   1.420       .  A
C1373      H1378   1.076       .  S
C1374      C1375   1.416       .  A
C1375      C1376   1.404       .  A
C1375      H1379   1.076       .  S
C1376      C1377   1.398       .  A
C1377      H1380   1.084       .  S
C1381      C1456   1.479       .  S
C1381      C1382   1.404       .  A
C1382      H1387   1.076       .  S
C1383      C1384   1.420       .  A
C1384      C1385   1.408       .  A
C1384      H1388   1.076       .  S
C1385      C1444   1.482       .  S
C1385      C1386   1.399       .  A
C1386      H1389   1.084       .  S
C1390      C1429   1.478       .  S
C1390      C1395   1.405       .  A
C1391      C1392   1.400       .  A
C1391      H1396   1.084       .  S
C1392      C1508   1.482       .  S
C1392      C1393   1.407       .  A
C1393      C1394   1.419       .  A
C1393      H1397   1.076       .  S
C1395      H1398   1.075       .  S
C1399      C1400   1.405       .  A
C1399      C1404   1.398       .  A
C1400      C1401   1.416       .  A
C1400      H1405   1.076       .  S
C1401      C1412   1.522       .  S
C1401      C1914   1.419       .  A
C1402      C1913   1.420   1_545  A
C1402      C1403   1.407       .  A
C1402      H1406   1.075       .  S
C1403      C1442   1.482       .  S
C1403      C1916   1.399       .  A
C1404      C1915   1.400       .  A
C1404      H1919   1.084       .  S
H1407      C1916   1.084       .  S
C1408      C1427   1.478       .  S
C1408      C1921   1.396   1_545  A
C1408      C1413   1.405       .  A
C1409      C1920   1.397       .  A
C1409      C1410   1.400       .  A
C1409      H1414   1.084       .  S
C1410      C1411   1.408       .  A
C1411      C1412   1.419       .  A
C1411      H1415   1.076       .  S
C1412      C1925   1.416       .  A
C1413      C1924   1.416   1_545  A
C1413      H1416   1.075       .  S
O1417     Ni1425   1.921       .  S
O1417      C1427   1.283       .  A
O1418     Ni1425   1.920       .  S
O1418      C1428   1.282       .  A
O1419     Ni1425   1.921       .  S
O1419      C1429   1.283       .  A
O1420     Ni1425   1.921       .  S
O1420      C1430   1.282       .  A
O1421     Ni1426   1.916       .  S
O1421      C1430   1.282       .  A
O1422     Ni1426   1.910       .  S
O1422      C1429   1.280       .  A
O1423     Ni1426   1.917       .  S
O1423      C1428   1.282       .  A
O1424     Ni1426   1.911       .  S
O1424      C1427   1.280       .  A
Ni1425    Ni1426   2.387       .  S
O1431     Ni1439   1.921       .  S
O1431      C1441   1.283       .  A
O1432     Ni1439   1.919       .  S
O1432      C1442   1.281       .  A
O1433     Ni1439   1.920       .  S
O1433      C1443   1.282       .  A
O1434     Ni1439   1.919       .  S
O1434      C1444   1.282       .  A
O1435     Ni1440   1.918       .  S
O1435      C1444   1.282       .  A
O1436     Ni1440   1.912       .  S
O1436      C1443   1.281       .  A
O1437     Ni1440   1.917       .  S
O1437      C1442   1.282       .  A
O1438     Ni1440   1.912       .  S
O1438      C1441   1.280       .  A
Ni1439    Ni1440   2.387       .  S
O1445     Ni1453   1.917       .  S
O1445      C1455   1.282       .  A
O1446     Ni1453   1.912       .  S
O1446      C1456   1.281       .  A
O1447     Ni1453   1.918       .  S
O1447      C1457   1.282       .  A
O1448     Ni1453   1.912       .  S
O1448      C1458   1.281       .  A
O1449     Ni1454   1.922       .  S
O1449      C1458   1.283       .  A
O1450     Ni1454   1.921       .  S
O1450      C1457   1.282       .  A
O1451     Ni1454   1.921       .  S
O1451      C1456   1.283       .  A
O1452     Ni1454   1.919       .  S
O1452      C1455   1.282       .  A
Ni1453    Ni1454   2.387       .  S
C1457      C1461   1.484       .  S
C1458      C1477   1.479       .  S
C1459      C1520   1.479       .  S
C1459      C1460   1.398       .  A
C1459      C1464   1.405       .  A
C1460      C1461   1.400       .  A
C1460      H1465   1.084       .  S
C1461      C1462   1.408       .  A
C1462      C1463   1.420       .  A
C1462      H1466   1.075       .  S
C1463      C1464   1.416       .  A
C1464      H1467   1.075       .  S
C1468      C1505   1.477       .  S
C1468      C1469   1.397       .  A
C1468      C1473   1.404       .  A
C1469      C1470   1.399       .  A
C1469      H1474   1.084       .  S
C1470      C1533   1.482       .  S
C1470      C1471   1.407       .  A
C1471      C1472   1.420       .  A
C1471      H1475   1.076       .  S
C1472      C1473   1.415       .  A
C1473      H1476   1.076       .  S
C1477      C1990   1.398   1_545  A
C1477      C1482   1.404       .  A
C1478      C1989   1.397       .  A
C1478      C1479   1.399       .  A
C1478      H1483   1.084       .  S
C1479      C1519   1.483       .  S
C1479      C1480   1.408       .  A
C1480      C1481   1.420       .  A
C1480      H1484   1.076       .  S
C1481      C1488   1.522       .  S
C1481      C1994   1.415       .  A
C1482      C1993   1.416   1_545  A
C1482      H1485   1.075       .  S
C1486      C1506   1.482       .  S
C1486      C1487   1.407       .  A
C1486      C2003   1.400       .  A
C1487      C2000   1.419       .  A
C1487      H1492   1.076       .  S
C1488      C1999   1.420       .  A
C1488      C1489   1.415       .  A
C1489      C1490   1.404       .  A
C1489      H1493   1.075       .  S
C1490      C1534   1.477       .  S
C1490      C1491   1.397       .  A
C1491      C1998   1.399       .  A
C1491      H1494   1.084       .  S
O1495     Ni1503   1.920       .  S
O1495      C1505   1.282       .  A
O1496     Ni1503   1.920       .  S
O1496      C1506   1.282       .  A
O1497     Ni1503   1.921       .  S
O1497      C1507   1.283       .  A
O1498     Ni1503   1.920       .  S
O1498      C1508   1.282       .  A
O1499     Ni1504   1.916       .  S
O1499      C1508   1.282       .  A
O1500     Ni1504   1.911       .  S
O1500      C1507   1.280       .  A
O1501     Ni1504   1.915       .  S
O1501      C1506   1.282       .  A
O1502     Ni1504   1.909       .  S
O1502      C1505   1.280       .  A
Ni1503    Ni1504   2.388       .  S
O1509     Ni1517   1.919       .  S
O1509      C1519   1.281       .  A
O1510     Ni1517   1.920       .  S
O1510      C1520   1.282       .  A
O1511     Ni1517   1.920       .  S
O1511      C1521   1.282       .  A
O1512     Ni1517   1.921       .  S
O1512      C1522   1.283       .  A
O1513     Ni1518   1.913       .  S
O1513      C1522   1.280       .  A
O1514     Ni1518   1.918       .  S
O1514      C1521   1.282       .  A
O1515     Ni1518   1.912       .  S
O1515      C1520   1.281       .  A
O1516     Ni1518   1.918       .  S
O1516      C1519   1.283       .  A
Ni1517    Ni1518   2.387       .  S
O1523     Ni1531   1.919       .  S
O1523      C1533   1.282       .  A
O1524     Ni1531   1.920       .  S
O1524      C1534   1.282       .  A
O1525     Ni1531   1.921       .  S
O1525      C1535   1.282       .  A
O1526     Ni1531   1.921       .  S
O1526      C1536   1.283       .  A
O1527     Ni1532   1.912       .  S
O1527      C1536   1.280       .  A
O1528     Ni1532   1.917       .  S
O1528      C1535   1.282       .  A
O1529     Ni1532   1.910       .  S
O1529      C1534   1.280       .  A
O1530     Ni1532   1.917       .  S
O1530      C1533   1.282       .  A
Ni1531    Ni1532   2.387       .  S
O1537     Ni1545   1.922       .  S
O1537      C1547   1.282       .  A
O1538     Ni1545   1.922       .  S
O1538      C1548   1.283       .  A
O1539     Ni1545   1.918       .  S
O1539      C1549   1.281       .  A
O1540     Ni1545   1.920       .  S
O1540      C1550   1.282       .  A
O1541     Ni1546   1.913       .  S
O1541      C1550   1.281       .  A
O1542     Ni1546   1.918       .  S
O1542      C1549   1.282       .  A
O1543     Ni1546   1.910       .  S
O1543      C1548   1.280       .  A
O1544     Ni1546   1.918       .  S
O1544      C1547   1.282       .  A
Ni1545    Ni1546   2.387       .  S
C1547      C1623   1.484       .  S
C1548      C1655   1.479       .  S
C1549      C1551   1.482       .  S
C1550      C1571   1.479       .  S
C1551      C1552   1.407       .  A
C1551      C1556   1.399       .  A
C1552      C1553   1.419       .  A
C1552      H1557   1.076       .  S
C1553      C1818   1.522   1_554  S
C1553      C1554   1.417       .  A
C1554      C1555   1.405       .  A
C1554      H1558   1.076       .  S
C1555      C1778   1.479       .  S
C1555      C1556   1.397       .  A
C1556      H1559   1.084       .  S
C1560      C1791   1.484       .  S
C1560      C1561   1.408       .  A
C1560      C1565   1.400       .  A
C1561      C1562   1.420       .  A
C1561      H1566   1.076       .  S
C1562      C1809   1.523       .  S
C1562      C1563   1.416       .  A
C1563      C1564   1.405       .  A
C1563      H1567   1.076       .  S
C1564      C1597   1.480       .  S
C1564      C1565   1.398       .  A
C1565      H1568   1.084       .  S
C1569      C1777   1.482       .  S
C1569      C1574   1.407       .  A
C1570      C1571   1.398       .  A
C1570      H1575   1.084       .  S
C1571      C1572   1.404       .  A
C1572      H1576   1.076       .  S
C1573      C1580   1.521       .  S
C1573      C1574   1.419   1_455  A
C1574      H1577   1.076       .  S
C1578      C1598   1.483       .  S
C1578      C1579   1.407       .  A
C1579      H1584   1.076       .  S
C1580      C1581   1.416   1_455  A
C1581      C1582   1.404       .  A
C1581      H1585   1.076       .  S
C1582      C1792   1.478       .  S
C1582      C1583   1.397   1_655  A
C1583      H1586   1.084       .  S
O1587     Ni1595   1.912       .  S
O1587      C1597   1.281       .  A
O1588     Ni1595   1.917       .  S
O1588      C1598   1.282       .  A
O1589     Ni1595   1.911       .  S
O1589      C1599   1.280       .  A
O1590     Ni1595   1.917       .  S
O1590      C1600   1.282       .  A
O1591     Ni1596   1.919       .  S
O1591      C1600   1.282       .  A
O1592     Ni1596   1.920       .  S
O1592      C1599   1.282       .  A
O1593     Ni1596   1.921       .  S
O1593      C1598   1.282       .  A
O1594     Ni1596   1.922       .  S
O1594      C1597   1.283       .  A
Ni1595    Ni1596   2.387       .  S
C1599      C1632   1.477       .  S
C1600      C1666   1.482       .  S
C1601      C1699   1.479       .  S
C1601      C1602   1.405       .  A
C1601      C1606   1.397       .  A
C1602      C1603   1.416       .  A
C1602      H1607   1.076       .  S
C1603      C1868   1.521   1_554  S
C1603      C1604   1.419       .  A
C1604      C1605   1.407       .  A
C1604      H1608   1.076       .  S
C1605      C1711   1.481       .  S
C1605      C1606   1.400       .  A
C1606      H1609   1.084       .  S
C1610      C1763   1.478       .  S
C1610      C1611   1.404       .  A
C1610      C1615   1.397       .  A
C1611      C1612   1.416       .  A
C1611      H1616   1.076       .  S
C1612      C1859   1.522       .  S
C1612      C1613   1.420       .  A
C1613      C1614   1.407       .  A
C1613      H1617   1.076       .  S
C1614      C1686   1.483       .  S
C1614      C1615   1.400       .  A
C1615      H1618   1.084       .  S
C1619      C1697   1.479       .  S
C1619      C1620   1.404       .  A
C1619      C1624   1.398       .  A
C1620      C1621   1.415       .  A
C1620      H1625   1.075       .  S
C1621      C1886   1.524   1_554  S
C1621      C1622   1.421       .  A
C1622      C1623   1.408       .  A
C1622      H1626   1.076       .  S
C1623      C1624   1.400       .  A
C1624      H1627   1.084       .  S
C1628      C1684   1.481       .  S
C1628      C1629   1.407       .  A
C1628      C1633   1.399       .  A
C1629      C1630   1.419       .  A
C1629      H1634   1.076       .  S
C1630      C1877   1.520       .  S
C1630      C1631   1.415       .  A
C1631      C1632   1.404       .  A
C1631      H1635   1.076       .  S
C1632      C1633   1.397       .  A
C1633      H1636   1.084       .  S
C1637      C1712   1.478       .  S
C1637      C1638   1.405       .  A
C1638      H1643   1.076       .  S
C1639      C1640   1.419       .  A
C1640      C1641   1.407       .  A
C1640      H1644   1.076       .  S
C1641      C1700   1.482       .  S
C1641      C1642   1.400       .  A
C1642      H1645   1.084       .  S
C1646      C1685   1.479       .  S
C1646      C1651   1.405       .  A
C1647      C1648   1.400       .  A
C1647      H1652   1.084       .  S
C1648      C1764   1.482       .  S
C1648      C1649   1.407       .  A
C1649      C1650   1.419       .  A
C1649      H1653   1.076       .  S
C1651      H1654   1.076       .  S
C1655      C1656   1.404       .  A
C1655      C1660   1.397   1_565  A
C1656      C1657   1.415   1_565  A
C1656      H1661   1.076       .  S
C1657      C1668   1.522   1_545  S
C1658      C1659   1.408       .  A
C1658      H1662   1.076       .  S
C1659      C1698   1.482       .  S
C1664      C1683   1.478       .  S
C1664      C1669   1.405       .  A
C1665      C1666   1.400       .  A
C1665      H1670   1.084       .  S
C1666      C1667   1.407       .  A
C1667      C1668   1.420       .  A
C1667      H1671   1.076       .  S
C1669      H1672   1.076       .  S
O1673     Ni1681   1.920       .  S
O1673      C1683   1.282       .  A
O1674     Ni1681   1.919       .  S
O1674      C1684   1.281       .  A
O1675     Ni1681   1.921       .  S
O1675      C1685   1.283       .  A
O1676     Ni1681   1.921       .  S
O1676      C1686   1.282       .  A
O1677     Ni1682   1.917       .  S
O1677      C1686   1.282       .  A
O1678     Ni1682   1.911       .  S
O1678      C1685   1.280       .  A
O1679     Ni1682   1.916       .  S
O1679      C1684   1.282       .  A
O1680     Ni1682   1.910       .  S
O1680      C1683   1.280       .  A
Ni1681    Ni1682   2.387       .  S
O1687     Ni1695   1.920       .  S
O1687      C1697   1.282       .  A
O1688     Ni1695   1.919       .  S
O1688      C1698   1.281       .  A
O1689     Ni1695   1.922       .  S
O1689      C1699   1.283       .  A
O1690     Ni1695   1.919       .  S
O1690      C1700   1.282       .  A
O1691     Ni1696   1.916       .  S
O1691      C1700   1.282       .  A
O1692     Ni1696   1.912       .  S
O1692      C1699   1.280       .  A
O1693     Ni1696   1.917       .  S
O1693      C1698   1.282       .  A
O1694     Ni1696   1.912       .  S
O1694      C1697   1.281       .  A
Ni1695    Ni1696   2.387       .  S
O1701     Ni1709   1.915       .  S
O1701      C1711   1.282       .  A
O1702     Ni1709   1.911       .  S
O1702      C1712   1.280       .  A
O1703     Ni1709   1.918       .  S
O1703      C1713   1.282       .  A
O1704     Ni1709   1.910       .  S
O1704      C1714   1.280       .  A
O1705     Ni1710   1.921       .  S
O1705      C1714   1.282       .  A
O1706     Ni1710   1.921       .  S
O1706      C1713   1.282       .  A
O1707     Ni1710   1.921       .  S
O1707      C1712   1.283       .  A
O1708     Ni1710   1.919       .  S
O1708      C1711   1.282       .  A
Ni1709    Ni1710   2.387       .  S
C1713      C1717   1.484       .  S
C1714      C1733   1.477       .  S
C1715      C1776   1.479       .  S
C1715      C1716   1.398       .  A
C1715      C1720   1.404       .  A
C1716      C1717   1.400       .  A
C1716      H1721   1.084       .  S
C1717      C1718   1.408       .  A
C1718      C1719   1.421       .  A
C1718      H1722   1.076       .  S
C1719      C1984   1.523   1_554  S
C1719      C1720   1.415       .  A
C1720      H1723   1.075       .  S
C1724      C1761   1.478       .  S
C1724      C1725   1.397       .  A
C1724      C1729   1.405       .  A
C1725      C1726   1.400       .  A
C1725      H1730   1.084       .  S
C1726      C1789   1.482       .  S
C1726      C1727   1.407       .  A
C1727      C1728   1.419       .  A
C1727      H1731   1.076       .  S
C1728      C1975   1.520       .  S
C1728      C1729   1.416       .  A
C1729      H1732   1.076       .  S
C1733      C1738   1.404       .  A
C1734      C1735   1.399       .  A
C1734      H1739   1.084       .  S
C1735      C1775   1.481       .  S
C1735      C1736   1.407       .  A
C1736      C1737   1.419       .  A
C1736      H1740   1.076       .  S
C1737      C1744   1.522       .  S
C1738      H1741   1.075       .  S
C1742      C1762   1.483       .  S
C1742      C1743   1.408       .  A
C1743      H1748   1.076       .  S
C1744      C1745   1.416       .  A
C1745      C1746   1.405       .  A
C1745      H1749   1.076       .  S
C1746      C1790   1.478       .  S
C1746      C1747   1.397   1_565  A
C1747      H1750   1.084       .  S
O1751     Ni1759   1.921       .  S
O1751      C1761   1.283       .  A
O1752     Ni1759   1.920       .  S
O1752      C1762   1.282       .  A
O1753     Ni1759   1.921       .  S
O1753      C1763   1.282       .  A
O1754     Ni1759   1.919       .  S
O1754      C1764   1.282       .  A
O1755     Ni1760   1.917       .  S
O1755      C1764   1.282       .  A
O1756     Ni1760   1.911       .  S
O1756      C1763   1.280       .  A
O1757     Ni1760   1.917       .  S
O1757      C1762   1.282       .  A
O1758     Ni1760   1.911       .  S
O1758      C1761   1.280       .  A
Ni1759    Ni1760   2.387       .  S
O1765     Ni1773   1.918       .  S
O1765      C1775   1.281       .  A
O1766     Ni1773   1.920       .  S
O1766      C1776   1.282       .  A
O1767     Ni1773   1.920       .  S
O1767      C1777   1.282       .  A
O1768     Ni1773   1.921       .  S
O1768      C1778   1.283       .  A
O1769     Ni1774   1.912       .  S
O1769      C1778   1.280       .  A
O1770     Ni1774   1.916       .  S
O1770      C1777   1.282       .  A
O1771     Ni1774   1.912       .  S
O1771      C1776   1.281       .  A
O1772     Ni1774   1.917       .  S
O1772      C1775   1.282       .  A
Ni1773    Ni1774   2.387       .  S
O1779     Ni1787   1.920       .  S
O1779      C1789   1.282       .  A
O1780     Ni1787   1.920       .  S
O1780      C1790   1.283       .  A
O1781     Ni1787   1.921       .  S
O1781      C1791   1.282       .  A
O1782     Ni1787   1.921       .  S
O1782      C1792   1.283       .  A
O1783     Ni1788   1.911       .  S
O1783      C1792   1.280       .  A
O1784     Ni1788   1.918       .  S
O1784      C1791   1.282       .  A
O1785     Ni1788   1.911       .  S
O1785      C1790   1.280       .  A
O1786     Ni1788   1.916       .  S
O1786      C1789   1.282       .  A
Ni1787    Ni1788   2.387       .  S
O1793     Ni1801   1.919       .  S
O1793      C1803   1.282       .  A
O1794     Ni1801   1.920       .  S
O1794      C1804   1.282       .  A
O1795     Ni1801   1.920       .  S
O1795      C1805   1.282       .  A
O1796     Ni1801   1.922       .  S
O1796      C1806   1.283       .  A
O1797     Ni1802   1.911       .  S
O1797      C1806   1.280       .  A
O1798     Ni1802   1.916       .  S
O1798      C1805   1.282       .  A
O1799     Ni1802   1.911       .  S
O1799      C1804   1.280       .  A
O1800     Ni1802   1.916       .  S
O1800      C1803   1.282       .  A
Ni1801    Ni1802   2.387       .  S
C1803      C1879   1.481       .  S
C1804      C1911   1.478       .  S
C1805      C1807   1.482       .  S
C1806      C1827   1.479       .  S
C1807      C1808   1.407       .  A
C1807      C1812   1.399       .  A
C1808      C1809   1.420       .  A
C1808      H1813   1.076       .  S
C1809      C1810   1.416       .  A
C1810      C1811   1.405       .  A
C1810      H1814   1.076       .  S
C1811      C2034   1.478       .  S
C1811      C1812   1.397       .  A
C1812      H1815   1.084       .  S
C1816      C2047   1.482       .  S
C1816      C1817   1.407       .  A
C1816      C1821   1.399       .  A
C1817      C1818   1.418       .  A
C1817      H1822   1.076       .  S
C1818      C1819   1.417       .  A
C1819      C1820   1.405       .  A
C1819      H1823   1.076       .  S
C1820      C1853   1.479       .  S
C1820      C1821   1.397       .  A
C1821      H1824   1.084       .  S
C1825      C2033   1.482       .  S
C1825      C1830   1.407       .  A
C1826      C1827   1.397       .  A
C1826      H1831   1.084       .  S
C1827      C1828   1.405       .  A
C1828      H1832   1.075       .  S
C1829      C1836   1.519       .  S
C1829      C1830   1.419       .  A
C1830      H1833   1.077       .  S
C1834      C1854   1.482       .  S
C1834      C1835   1.407       .  A
C1835      H1840   1.076       .  S
C1836      C1837   1.415       .  A
C1837      C1838   1.404       .  A
C1837      H1841   1.077       .  S
C1838      C2048   1.479       .  S
C1838      C1839   1.397   1_655  A
C1839      H1842   1.084       .  S
O1843     Ni1851   1.912       .  S
O1843      C1853   1.280       .  A
O1844     Ni1851   1.916       .  S
O1844      C1854   1.282       .  A
O1845     Ni1851   1.909       .  S
O1845      C1855   1.280       .  A
O1846     Ni1851   1.915       .  S
O1846      C1856   1.282       .  A
O1847     Ni1852   1.919       .  S
O1847      C1856   1.282       .  A
O1848     Ni1852   1.920       .  S
O1848      C1855   1.283       .  A
O1849     Ni1852   1.919       .  S
O1849      C1854   1.282       .  A
O1850     Ni1852   1.921       .  S
O1850      C1853   1.283       .  A
Ni1851    Ni1852   2.388       .  S
C1855      C1888   1.477       .  S
C1856      C1922   1.481       .  S
C1857      C1955   1.477       .  S
C1857      C1858   1.404       .  A
C1857      C1862   1.397       .  A
C1858      C1859   1.415       .  A
C1858      H1863   1.076       .  S
C1859      C1860   1.420       .  A
C1860      C1861   1.408       .  A
C1860      H1864   1.076       .  S
C1861      C1967   1.482       .  S
C1861      C1862   1.400       .  A
C1862      H1865   1.084       .  S
C1866      C2019   1.480       .  S
C1866      C1867   1.405       .  A
C1866      C1871   1.398       .  A
C1867      C1868   1.416       .  A
C1867      H1872   1.076       .  S
C1868      C1869   1.419       .  A
C1869      C1870   1.407       .  A
C1869      H1873   1.076       .  S
C1870      C1942   1.483       .  S
C1870      C1871   1.401       .  A
C1871      H1874   1.084       .  S
C1875      C1953   1.478       .  S
C1875      C1876   1.404       .  A
C1875      C1880   1.397       .  A
C1876      C1877   1.415       .  A
C1876      H1881   1.076       .  S
C1877      C1878   1.419       .  A
C1878      C1879   1.407       .  A
C1878      H1882   1.076       .  S
C1879      C1880   1.400       .  A
C1880      H1883   1.084       .  S
C1884      C1940   1.483       .  S
C1884      C1885   1.408       .  A
C1884      C1889   1.399       .  A
C1885      C1886   1.421       .  A
C1885      H1890   1.076       .  S
C1886      C1887   1.415       .  A
C1887      C1888   1.405       .  A
C1887      H1891   1.075       .  S
C1888      C1889   1.397       .  A
C1889      H1892   1.084       .  S
C1893      C1968   1.479       .  S
C1893      C1894   1.405       .  A
C1894      H1899   1.076       .  S
C1895      C1896   1.420       .  A
C1896      C1897   1.408       .  A
C1896      H1900   1.076       .  S
C1897      C1956   1.482       .  S
C1897      C1898   1.399       .  A
C1898      H1901   1.084       .  S
C1902      C1941   1.478       .  S
C1902      C1907   1.405       .  A
C1903      C1904   1.399       .  A
C1903      H1908   1.084       .  S
C1904      C2020   1.482       .  S
C1904      C1905   1.408       .  A
C1905      C1906   1.419   1_655  A
C1905      H1909   1.076       .  S
C1907      H1910   1.075       .  S
C1911      C1912   1.404       .  A
C1911      C1916   1.397   1_565  A
C1912      C1913   1.416       .  A
C1912      H1917   1.075       .  S
C1913      C1924   1.522       .  S
C1914      C1915   1.407       .  A
C1914      H1918   1.076       .  S
C1915      C1954   1.483       .  S
C1920      C1939   1.479       .  S
C1920      C1925   1.405       .  A
C1921      C1922   1.399       .  A
C1921      H1926   1.084       .  S
C1922      C1923   1.407       .  A
C1923      C1924   1.419       .  A
C1923      H1927   1.075       .  S
C1925      H1928   1.076       .  S
O1929     Ni1937   1.921       .  S
O1929      C1939   1.283       .  A
O1930     Ni1937   1.920       .  S
O1930      C1940   1.282       .  A
O1931     Ni1937   1.921       .  S
O1931      C1941   1.283       .  A
O1932     Ni1937   1.920       .  S
O1932      C1942   1.282       .  A
O1933     Ni1938   1.917       .  S
O1933      C1942   1.282       .  A
O1934     Ni1938   1.910       .  S
O1934      C1941   1.280       .  A
O1935     Ni1938   1.917       .  S
O1935      C1940   1.282       .  A
O1936     Ni1938   1.911       .  S
O1936      C1939   1.280       .  A
Ni1937    Ni1938   2.387       .  S
O1943     Ni1951   1.921       .  S
O1943      C1953   1.283       .  A
O1944     Ni1951   1.920       .  S
O1944      C1954   1.282       .  A
O1945     Ni1951   1.919       .  S
O1945      C1955   1.282       .  A
O1946     Ni1951   1.919       .  S
O1946      C1956   1.281       .  A
O1947     Ni1952   1.917       .  S
O1947      C1956   1.282       .  A
O1948     Ni1952   1.911       .  S
O1948      C1955   1.280       .  A
O1949     Ni1952   1.917       .  S
O1949      C1954   1.282       .  A
O1950     Ni1952   1.911       .  S
O1950      C1953   1.280       .  A
Ni1951    Ni1952   2.388       .  S
O1957     Ni1965   1.917       .  S
O1957      C1967   1.282       .  A
O1958     Ni1965   1.911       .  S
O1958      C1968   1.280       .  A
O1959     Ni1965   1.916       .  S
O1959      C1969   1.282       .  A
O1960     Ni1965   1.910       .  S
O1960      C1970   1.280       .  A
O1961     Ni1966   1.920       .  S
O1961      C1970   1.282       .  A
O1962     Ni1966   1.919       .  S
O1962      C1969   1.281       .  A
O1963     Ni1966   1.921       .  S
O1963      C1968   1.283       .  A
O1964     Ni1966   1.920       .  S
O1964      C1967   1.282       .  A
Ni1965    Ni1966   2.388       .  S
C1969      C1973   1.482       .  S
C1970      C1989   1.477       .  S
C1971      C2032   1.478       .  S
C1971      C1972   1.397       .  A
C1971      C1976   1.405       .  A
C1972      C1973   1.399       .  A
C1972      H1977   1.084       .  S
C1973      C1974   1.407       .  A
C1974      C1975   1.419       .  A
C1974      H1978   1.076       .  S
C1975      C1976   1.416       .  A
C1976      H1979   1.076       .  S
C1980      C2017   1.478       .  S
C1980      C1981   1.397       .  A
C1980      C1985   1.404       .  A
C1981      C1982   1.399       .  A
C1981      H1986   1.084       .  S
C1982      C2045   1.483       .  S
C1982      C1983   1.408       .  A
C1983      C1984   1.421       .  A
C1983      H1987   1.076       .  S
C1984      C1985   1.415       .  A
C1985      H1988   1.075       .  S
C1989      C1994   1.404       .  A
C1990      C1991   1.400       .  A
C1990      H1995   1.084       .  S
C1991      C2031   1.483       .  S
C1991      C1992   1.407       .  A
C1992      C1993   1.420       .  A
C1992      H1996   1.076       .  S
C1993      C2000   1.521   1_565  S
C1994      H1997   1.075       .  S
C1998      C2018   1.482       .  S
C1998      C1999   1.408       .  A
C1999      H2004   1.076       .  S
C2000      C2001   1.415   1_545  A
C2001      C2002   1.404       .  A
C2001      H2005   1.076       .  S
C2002      C2046   1.478       .  S
C2002      C2003   1.397   1_565  A
C2003      H2006   1.084       .  S
O2007     Ni2015   1.920       .  S
O2007      C2017   1.282       .  A
O2008     Ni2015   1.919       .  S
O2008      C2018   1.282       .  A
O2009     Ni2015   1.922       .  S
O2009      C2019   1.283       .  A
O2010     Ni2015   1.919       .  S
O2010      C2020   1.281       .  A
O2011     Ni2016   1.917       .  S
O2011      C2020   1.282       .  A
O2012     Ni2016   1.913       .  S
O2012      C2019   1.281       .  A
O2013     Ni2016   1.916       .  S
O2013      C2018   1.282       .  A
O2014     Ni2016   1.910       .  S
O2014      C2017   1.280       .  A
Ni2015    Ni2016   2.387       .  S
O2021     Ni2029   1.921       .  S
O2021      C2031   1.282       .  A
O2022     Ni2029   1.921       .  S
O2022      C2032   1.283       .  A
O2023     Ni2029   1.920       .  S
O2023      C2033   1.282       .  A
O2024     Ni2029   1.921       .  S
O2024      C2034   1.283       .  A
O2025     Ni2030   1.910       .  S
O2025      C2034   1.280       .  A
O2026     Ni2030   1.916       .  S
O2026      C2033   1.282       .  A
O2027     Ni2030   1.911       .  S
O2027      C2032   1.280       .  A
O2028     Ni2030   1.917       .  S
O2028      C2031   1.282       .  A
Ni2029    Ni2030   2.387       .  S
O2035     Ni2043   1.921       .  S
O2035      C2045   1.282       .  A
O2036     Ni2043   1.921       .  S
O2036      C2046   1.282       .  A
O2037     Ni2043   1.919       .  S
O2037      C2047   1.282       .  A
O2038     Ni2043   1.921       .  S
O2038      C2048   1.283       .  A
O2039     Ni2044   1.911       .  S
O2039      C2048   1.280       .  A
O2040     Ni2044   1.917       .  S
O2040      C2047   1.282       .  A
O2041     Ni2044   1.910       .  S
O2041      C2046   1.280       .  A
O2042     Ni2044   1.918       .  S
O2042      C2045   1.282       .  A
Ni2043    Ni2044   2.387       .  S
