geometry optimzed in LAMMPS
_audit_creation_date              2020-12-01 
_audit_creation_method            'lammps2cif' 
_symmetry_space_group_name_H-M    'P1' 
_symmetry_Int_Tables_number       1 
_symmetry_cell_setting            triclinic 
loop_ 
_symmetry_equiv_pos_as_xyz 
  x,y,z 
_cell_length_a                    44.50701037 
_cell_length_b                    44.435298337607335 
_cell_length_c                    44.55814210004782 
_cell_angle_alpha                 90.09416596095686 
_cell_angle_beta                  89.84416175099975 
_cell_angle_gamma                 89.98117813688101 
loop_ 
_atom_site_label 
_atom_site_type_symbol 
_atom_site_fract_x 
_atom_site_fract_y 
_atom_site_fract_z 
_atom_site_charge 
O1          O  0.24651358  0.03235231  0.25018002    -0.81800
C2          C  0.26894164  0.95707918  0.15009842     0.97600
O3          O  0.24730472  0.97513564  0.15248724    -0.70900
O4          O  0.22371639  0.96129150  0.20350580    -0.74500
Al5        Al  0.23488190  0.99787515  0.18655024     1.49000
C6          C  0.22107992  0.95600298  0.23107417     0.92900
O7          O  0.29540410  0.96226464  0.24662565    -0.80700
O8          O  0.31724568  0.03381862  0.20218261    -0.74200
Al9        Al  0.27092438  0.99719790  0.24564784     1.90100
O10         O  0.32594213  0.97308346  0.20934257    -0.73300
O11         O  0.28842589  0.02562690  0.15225352    -0.73200
O12         O  0.29355542  0.96268893  0.16264706    -0.78800
O13         O  0.24264831  0.03449801  0.16811940    -0.77000
O14         O  0.26990706  0.99801898  0.20537624    -1.13200
O15         O  0.21364690  0.02050457  0.21564710    -0.72400
C16         C  0.22154783  0.03642685  0.23757563     0.98400
C17         C  0.31910193  0.95733566  0.23186167     0.94800
Al18       Al  0.30356289  0.99875500  0.18340177     1.55600
O19         O  0.23621298  0.97067603  0.25024959    -0.77000
C20         C  0.26488344  0.04167514  0.15229593     0.98900
C21         C  0.31923652  0.03928345  0.22980247     0.93800
O22         O  0.30526575  0.02360286  0.24901500    -0.82300
O23         O  0.75883427  0.96727387  0.24690689    -0.81800
C24         C  0.73470813  0.04183235  0.14687350     0.97600
O25         O  0.75691499  0.02482412  0.15021549    -0.70900
O26         O  0.77887064  0.04064089  0.20169104    -0.74500
Al27       Al  0.76956047  0.00340079  0.18458649     1.49000
C28         C  0.78218468  0.04475444  0.22943989     0.92900
O29         O  0.70767218  0.03590412  0.24526456    -0.80700
O30         O  0.68662727  0.96536772  0.20027793    -0.74200
Al31       Al  0.73331707  0.00182818  0.24349628     1.90100
O32         O  0.67833411  0.02614535  0.20675822    -0.73300
O33         O  0.71681551  0.97327576  0.15107264    -0.73200
O34         O  0.71023513  0.03606456  0.15966917    -0.78800
O35         O  0.76317901  0.96650181  0.16653218    -0.77000
O36         O  0.73431313  0.00180763  0.20326701    -1.13200
O37         O  0.79189226  0.98206858  0.21365794    -0.72400
C38         C  0.78425932  0.96483078  0.23462051     0.98400
C39         C  0.68447434  0.04119118  0.22992741     0.94800
Al40       Al  0.70075410  0.00033762  0.18124972     1.55600
O41         O  0.76737690  0.02928996  0.24833025    -0.77000
C42         C  0.74080836  0.95796862  0.15165801     0.98900
C43         C  0.68528596  0.95916467  0.22777154     0.93800
O44         O  0.69987010  0.97432412  0.24686852    -0.82300
O45         O  0.24611522  0.24272102  0.04280868    -0.81800
C46         C  0.14544873  0.26954455  0.96924352     0.97600
O47         O  0.14846468  0.24713656  0.98608389    -0.70900
O48         O  0.19984554  0.22436221  0.97038184    -0.74500
Al49       Al  0.18264619  0.23372496  0.00763744     1.49000
C50         C  0.22758782  0.22187097  0.96525294     0.92900
O51         O  0.24433251  0.29573280  0.97587292    -0.80700
O52         O  0.19938011  0.31575500  0.04657721    -0.74200
Al53       Al  0.24228202  0.26927459  0.00916890     1.90100
O54         O  0.20598609  0.32525609  0.98606447    -0.73300
O55         O  0.14938559  0.28659398  0.03842560    -0.73200
O56         O  0.15843936  0.29385427  0.97545034    -0.78800
O57         O  0.16418135  0.23993638  0.04485086    -0.77000
O58         O  0.20185512  0.26869993  0.00951999    -1.13200
O59         O  0.21146717  0.21089780  0.02859888    -0.72400
C60         C  0.23346677  0.21744662  0.04489968     0.98400
C61         C  0.22927994  0.31925256  0.97104980     0.94800
Al62       Al  0.18010678  0.30255032  0.01148312     1.55600
O63         O  0.24666317  0.23611807  0.98087923    -0.77000
C64         C  0.14927577  0.26241016  0.05350183     0.98900
C65         C  0.22696398  0.31671035  0.05251382     0.93800
O66         O  0.24593259  0.30201752  0.03721035    -0.82300
O67         O  0.23987440  0.75744385  0.97714236    -0.81800
C68         C  0.14055080  0.72785873  0.05105666     0.97600
O69         O  0.14201197  0.75046238  0.03420010    -0.70900
O70         O  0.19266194  0.77454395  0.04960325    -0.74500
Al71       Al  0.17573272  0.76506050  0.01233635     1.49000
C72         C  0.22031219  0.77791104  0.05438370     0.92900
O73         O  0.23738245  0.70367190  0.04373184    -0.80700
O74         O  0.19354718  0.68430034  0.97156914    -0.74200
Al75       Al  0.23583629  0.73025597  0.01040710     1.90100
O76         O  0.20070339  0.67292200  0.03177214    -0.73300
O77         O  0.14318997  0.71221663  0.98116607    -0.73200
O78         O  0.15323675  0.70372746  0.04365826    -0.78800
O79         O  0.15735600  0.75909455  0.97511627    -0.77000
O80         O  0.19551322  0.73039595  0.00982826    -1.13200
O81         O  0.20429917  0.78843551  0.99136700    -0.72400
C82         C  0.22686672  0.78262040  0.97537239     0.98400
C83         C  0.22292301  0.67963973  0.04795008     0.94800
Al84       Al  0.17437282  0.69616551  0.00721152     1.55600
O85         O  0.23963199  0.76344841  0.03907187    -0.77000
C86         C  0.14287458  0.73650729  0.96628733     0.98900
C87         C  0.22118988  0.68318907  0.96571079     0.93800
O88         O  0.24005814  0.69746757  0.98159840    -0.82300
O89         O  0.96798786  0.24574050  0.76447474    -0.81800
C90         C  0.03792107  0.14031504  0.74771053     0.97600
O91         O  0.02016593  0.14500159  0.76934120    -0.70900
O92         O  0.03422702  0.19635153  0.79265647    -0.74500
Al93       Al  0.99768365  0.18018300  0.77981869     1.49000
C94         C  0.04104597  0.22377038  0.79415618     0.92900
O95         O  0.03912830  0.23599132  0.71845033    -0.80700
O96         O  0.96547679  0.19478699  0.69601326    -0.74200
Al97       Al  0.00335386  0.23803671  0.74161048     1.90100
O98         O  0.02646824  0.19882126  0.68853815    -0.73300
O99         O  0.97111466  0.14485143  0.72631402    -0.73200
O100        O  0.03355602  0.15250087  0.72269128    -0.78800
O101        O  0.96057555  0.16243053  0.77101418    -0.77000
O102        O  0.00005588  0.19780085  0.74418617    -1.13200
O103        O  0.97511849  0.21109551  0.79870308    -0.72400
C104        C  0.96198160  0.23443419  0.78965809     0.98400
C105        C  0.04356867  0.22042535  0.69520214     0.94800
Al106      Al  0.99919980  0.17472881  0.71118075     1.55600
O107        O  0.02862290  0.24282418  0.77705545    -0.77000
C108        C  0.95407010  0.14600406  0.74903271     0.98900
C109        C  0.96210384  0.22265352  0.69244082     0.93800
O110        O  0.97844237  0.24149592  0.70621196    -0.82300
O111        O  0.03449824  0.24271663  0.25195411    -0.81800
C112        C  0.96238866  0.13979284  0.27309278     0.97600
O113        O  0.97900997  0.14383206  0.25055643    -0.70900
O114        O  0.96425287  0.19538757  0.22847762    -0.74500
Al115      Al  0.00126900  0.17842185  0.23864891     1.49000
C116        C  0.95894876  0.22307493  0.22658450     0.92900
O117        O  0.96533682  0.23550424  0.30185233    -0.80700
O118        O  0.03888528  0.19273048  0.32065882    -0.74200
Al119      Al  0.99989199  0.23650322  0.27680813     1.90100
O120        O  0.97838087  0.19807428  0.33127357    -0.73300
O121        O  0.03118624  0.14336490  0.29055933    -0.73200
O122        O  0.96870510  0.15161972  0.29788873    -0.78800
O123        O  0.03836273  0.15996947  0.24486907    -0.77000
O124        O  0.00180848  0.19621655  0.27432791    -1.13200
O125        O  0.02327772  0.20862433  0.21817574    -0.72400
C126        C  0.03860819  0.23087985  0.22653022     0.98400
C127        C  0.96167120  0.22022528  0.32543254     0.94800
Al128      Al  0.00410928  0.17333305  0.30731595     1.55600
O129        O  0.97306498  0.24184564  0.24270296    -0.77000
C130        C  0.04663715  0.14422882  0.26670011     0.98900
C131        C  0.04305461  0.22049661  0.32388686     0.93800
O132        O  0.02652033  0.23959844  0.31083050    -0.82300
O133        O  0.96842277  0.75676106  0.25437627    -0.81800
C134        C  0.04163881  0.85930402  0.27088589     0.97600
O135        O  0.02540032  0.85411118  0.24844533    -0.70900
O136        O  0.04133415  0.80110142  0.23017369    -0.74500
Al137      Al  0.00382297  0.81863654  0.23815084     1.49000
C138        C  0.04615328  0.77319463  0.22946411     0.92900
O139        O  0.03782150  0.76373904  0.30321475    -0.80700
O140        O  0.96574778  0.80847952  0.32154700    -0.74200
Al141      Al  0.00333027  0.76259205  0.27863079     1.90100
O142        O  0.02665184  0.80330147  0.33090951    -0.73300
O143        O  0.97276843  0.85553265  0.28837742    -0.73200
O144        O  0.03525583  0.84835002  0.29597735    -0.78800
O145        O  0.96639330  0.83733818  0.24295176    -0.77000
O146        O  0.00238027  0.80267784  0.27463390    -1.13200
O147        O  0.98268474  0.78718283  0.21838289    -0.72400
C148        C  0.96574337  0.76666815  0.22801778     0.98400
C149        C  0.04252658  0.78026667  0.32575478     0.94800
Al150      Al  0.00025903  0.82698284  0.30655252     1.55600
O151        O  0.03014857  0.75527830  0.24477541    -0.77000
C152        C  0.95769188  0.85371887  0.26434115     0.98900
C153        C  0.96135092  0.78096304  0.32592590     0.93800
O154        O  0.97712872  0.76120302  0.31294438    -0.82300
O155        O  0.75905687  0.75627450  0.04531509    -0.81800
C156        C  0.85959465  0.73355260  0.97020632     0.97600
O157        O  0.85672843  0.75552049  0.98784065    -0.70900
O158        O  0.80553664  0.77987592  0.97485074    -0.74500
Al159      Al  0.82291785  0.76794248  0.01108624     1.49000
C160        C  0.77781483  0.78298982  0.97027504     0.92900
O161        O  0.76182345  0.70789336  0.97527351    -0.80700
O162        O  0.80634135  0.68503477  0.04637812    -0.74200
Al163      Al  0.76331118  0.73213824  0.01028085     1.90100
O164        O  0.79906202  0.67709898  0.98541179    -0.73300
O165        O  0.85668187  0.71368799  0.03811674    -0.73200
O166        O  0.84655797  0.70906322  0.97558610    -0.78800
O167        O  0.84165630  0.75966558  0.04770668    -0.77000
O168        O  0.80371125  0.73294261  0.01091292    -1.13200
O169        O  0.79411385  0.78898901  0.03400417    -0.72400
C170        C  0.77166839  0.78127940  0.04929177     0.98400
C171        C  0.77637374  0.68412775  0.97000013     0.94800
Al172      Al  0.82534815  0.69901282  0.01133152     1.55600
O173        O  0.75878020  0.76720121  0.98444661    -0.77000
C174        C  0.85677337  0.73688829  0.05468786     0.98900
C175        C  0.77867934  0.68348121  0.05196912     0.93800
O176        O  0.75967840  0.69770291  0.03634814    -0.82300
O177        O  0.24421039  0.96572614  0.76941129    -0.81800
C178        C  0.26896090  0.04298540  0.86788031     0.97600
O179        O  0.24598346  0.02677219  0.86501344    -0.70900
O180        O  0.22107122  0.03756047  0.81430618    -0.74500
Al181      Al  0.23307226  0.00184716  0.83283597     1.49000
C182        C  0.21762332  0.04128337  0.78664200     0.92900
O183        O  0.29235998  0.03612726  0.77147871    -0.80700
O184        O  0.31535894  0.96438629  0.81542288    -0.74200
Al185      Al  0.26844015  0.00091723  0.77297816     1.90100
O186        O  0.32373176  0.02526750  0.80799687    -0.73300
O187        O  0.28776857  0.97276651  0.86604906    -0.73200
O188        O  0.29342828  0.03545985  0.85599374    -0.78800
O189        O  0.24074171  0.96638358  0.85343914    -0.77000
O190        O  0.26793522  0.00066093  0.81342146    -1.13200
O191        O  0.21198799  0.97731248  0.80501942    -0.72400
C192        C  0.21933016  0.96184157  0.78244281     0.98400
C193        C  0.31607458  0.04134842  0.78596698     0.94800
Al194      Al  0.30217029  0.99952483  0.83457708     1.55600
O195        O  0.23328131  0.02655442  0.76795012    -0.77000
C196        C  0.26340390  0.95825232  0.86800304     0.98900
C197        C  0.31743098  0.95921896  0.78776641     0.93800
O198        O  0.30316547  0.97495292  0.76892976    -0.82300
O199        O  0.03259590  0.76181371  0.76739015    -0.81800
C200        C  0.95735329  0.86127640  0.74268434     0.97600
O201        O  0.97491052  0.85919595  0.76461074    -0.70900
O202        O  0.95997657  0.80782119  0.78737060    -0.74500
Al203      Al  0.99698713  0.82506558  0.77773260     1.49000
C204        C  0.95574115  0.78005625  0.79080255     0.92900
O205        O  0.96446135  0.76421900  0.71623107    -0.80700
O206        O  0.03595504  0.80909557  0.69586758    -0.74200
Al207      Al  0.99832008  0.76573624  0.74184952     1.90100
O208        O  0.97555939  0.80198262  0.68629958    -0.73300
O209        O  0.02697236  0.85913480  0.72515431    -0.73200
O210        O  0.96391918  0.84891496  0.71814914    -0.78800
O211        O  0.03387325  0.84347199  0.77125822    -0.77000
O212        O  0.99869469  0.80610576  0.74273085    -1.13200
O213        O  0.01867337  0.79600198  0.79999356    -0.72400
C214        C  0.03528807  0.77429044  0.79265190     0.98400
C215        C  0.96010635  0.77907360  0.69255583     0.94800
Al216      Al  0.00045553  0.82805382  0.70911374     1.55600
O217        O  0.97085165  0.76099551  0.77581719    -0.77000
C218        C  0.04242685  0.85856282  0.74901254     0.98900
C219        C  0.04151173  0.78135643  0.69439377     0.93800
O220        O  0.02573635  0.76236201  0.70853202    -0.82300
O221        O  0.76026694  0.24823918  0.97500771    -0.81800
C222        C  0.86275811  0.26690024  0.04758215     0.97600
O223        O  0.85924852  0.24578873  0.02907873    -0.70900
O224        O  0.80772605  0.22343677  0.04502323    -0.74500
Al225      Al  0.82379122  0.23453279  0.00795452     1.49000
C226        C  0.78002992  0.22071427  0.05015985     0.92900
O227        O  0.76507319  0.29547723  0.04569101    -0.80700
O228        O  0.80915777  0.31886329  0.97530533    -0.74200
Al229      Al  0.76545172  0.27175890  0.01047796     1.90100
O230        O  0.80347082  0.32510040  0.03602143    -0.73300
O231        O  0.85813977  0.28794772  0.98060712    -0.73200
O232        O  0.84989226  0.29165886  0.04361208    -0.78800
O233        O  0.84063564  0.24283580  0.97069409    -0.77000
O234        O  0.80565971  0.27002830  0.00910118    -1.13200
O235        O  0.79338201  0.21380200  0.98660771    -0.72400
C236        C  0.77158830  0.22258635  0.97103071     0.98400
C237        C  0.78055123  0.31851778  0.05133023     0.94800
Al238      Al  0.82832683  0.30320828  0.00891566     1.55600
O239        O  0.76086479  0.23648602  0.03613436    -0.77000
C240        C  0.85613170  0.26530792  0.96336986     0.98900
C241        C  0.78154524  0.32140760  0.97023301     0.93800
O242        O  0.76226100  0.30671243  0.98510901    -0.82300
O243        O  0.75435067  0.03491751  0.77159019    -0.81800
C244        C  0.73268699  0.96262671  0.87422767     0.97600
O245        O  0.75462275  0.98006712  0.87040831    -0.70900
O246        O  0.77722911  0.96432856  0.81904113    -0.74500
Al247      Al  0.76663153  0.00160815  0.83534223     1.49000
C248        C  0.77948130  0.95874404  0.79141903     0.92900
O249        O  0.70515934  0.96568184  0.77640049    -0.80700
O250        O  0.68310720  0.03670001  0.82015497    -0.74200
Al251      Al  0.72977322  0.00021856  0.77686241     1.90100
O252        O  0.67558161  0.97564324  0.81473036    -0.73300
O253        O  0.71332714  0.03053269  0.86919171    -0.73200
O254        O  0.70814220  0.96763346  0.86144878    -0.78800
O255        O  0.75909732  0.03903853  0.85269828    -0.77000
O256        O  0.73123636  0.00147974  0.81707468    -1.13200
O257        O  0.78805169  0.02293800  0.80514667    -0.72400
C258        C  0.77998111  0.03830004  0.78290702     0.98400
C259        C  0.68218161  0.96013231  0.79192510     0.94800
Al260      Al  0.69779324  0.00254506  0.83951203     1.55600
O261        O  0.76409300  0.97323757  0.77233220    -0.77000
C262        C  0.73659708  0.04691423  0.86787474     0.98900
C263        C  0.68145594  0.04241823  0.79262992     0.93800
O264        O  0.69580436  0.02702112  0.77344941    -0.82300
O265        O  0.46639202  0.25628592  0.26536896    -0.81800
C266        C  0.54313850  0.23527392  0.36469822     0.97600
O267        O  0.52672726  0.25794028  0.36070460    -0.70900
O268        O  0.54009370  0.27827932  0.30801371    -0.74500
Al269      Al  0.50360235  0.26961835  0.32672967     1.49000
C270        C  0.54431756  0.27976047  0.28014667     0.92900
O271        O  0.53495354  0.20601188  0.26741116    -0.80700
O272        O  0.46521133  0.18653255  0.31472330    -0.74200
Al273      Al  0.50090557  0.23127557  0.26898816     1.90100
O274        O  0.52553713  0.17741121  0.30658762    -0.73300
O275        O  0.47440924  0.21802018  0.36296344    -0.73200
O276        O  0.53672527  0.21063012  0.35255955    -0.78800
O277        O  0.46708854  0.26406960  0.34674697    -0.77000
O278        O  0.50157994  0.23376050  0.30923752    -1.13200
O279        O  0.48117040  0.29069632  0.29734430    -0.72400
C280        C  0.46403825  0.28217696  0.27660581     0.98400
C281        C  0.54024431  0.18300999  0.28300612     0.94800
Al282      Al  0.50054542  0.20090354  0.33230131     1.55600
O283        O  0.52803868  0.26499423  0.26205429    -0.77000
C284        C  0.45913069  0.24210082  0.36264917     0.98900
C285        C  0.45926285  0.18350215  0.28734564     0.93800
O286        O  0.47391905  0.19750999  0.26746281    -0.82300
O287        O  0.26085367  0.46648222  0.26829804    -0.81800
C288        C  0.36186562  0.54092601  0.24535528     0.97600
O289        O  0.35855842  0.52317180  0.26704298    -0.70900
O290        O  0.30730893  0.53766238  0.29099677    -0.74500
Al291      Al  0.32411782  0.50090999  0.27938792     1.49000
C292        C  0.27962152  0.54298102  0.29328928     0.92900
O293        O  0.26228802  0.53596594  0.21913637    -0.80700
O294        O  0.30776669  0.46665516  0.19563511    -0.74200
Al295      Al  0.26464175  0.50141471  0.24380418     1.90100
O296        O  0.30075969  0.52771347  0.18925342    -0.73300
O297        O  0.35737071  0.47363973  0.22499924    -0.73200
O298        O  0.34832653  0.53638941  0.22110185    -0.78800
O299        O  0.34195857  0.46394020  0.27084762    -0.77000
O300        O  0.30497053  0.50121711  0.24440137    -1.13200
O301        O  0.29503943  0.47874425  0.30120628    -0.72400
C302        C  0.27310042  0.46282533  0.29341047     0.98400
C303        C  0.27719582  0.54204719  0.19588398     0.94800
Al304      Al  0.32672169  0.50114117  0.21054489     1.55600
O305        O  0.26045942  0.52828643  0.27811105    -0.77000
C306        C  0.35684899  0.45680943  0.24793288     0.98900
C307        C  0.28036348  0.46005657  0.19479633     0.93800
O308        O  0.26115421  0.47460927  0.20996893    -0.82300
O309        O  0.25818096  0.25466505  0.47411387    -0.81800
C310        C  0.23380697  0.35481498  0.54871188     0.97600
O311        O  0.25489657  0.35298596  0.52995856    -0.70900
O312        O  0.27918136  0.30223712  0.54528259    -0.74500
Al313      Al  0.26813336  0.31842782  0.50837629     1.49000
C314        C  0.28277060  0.27460607  0.55031087     0.92900
O315        O  0.20871336  0.25644026  0.54414399    -0.80700
O316        O  0.18553033  0.30095622  0.47362086    -0.74200
Al317      Al  0.23340276  0.25838404  0.50920834     1.90100
O318        O  0.17796043  0.29376116  0.53418566    -0.73300
O319        O  0.21416480  0.35137351  0.48108148    -0.73200
O320        O  0.20954212  0.34123692  0.54404415    -0.78800
O321        O  0.25997076  0.33574119  0.47131559    -0.77000
O322        O  0.23350678  0.29872875  0.50852811    -1.13200
O323        O  0.29056119  0.28941512  0.48678649    -0.72400
C324        C  0.28320382  0.26747632  0.47062716     0.98400
C325        C  0.18518585  0.27123240  0.54977738     0.94800
Al326      Al  0.19950858  0.32008546  0.50823079     1.55600
O327        O  0.26806962  0.25490531  0.53578492    -0.77000
C328        C  0.23733664  0.35107311  0.46440132     0.98900
C329        C  0.18447580  0.27332814  0.46768452     0.93800
O330        O  0.19936472  0.25428154  0.48268526    -0.82300
O331        O  0.25625463  0.74519157  0.54525342    -0.81800
C332        C  0.23571304  0.64532871  0.46925069     0.97600
O333        O  0.25674688  0.64755926  0.48791545    -0.70900
O334        O  0.28035372  0.69900186  0.47449763    -0.74500
Al335      Al  0.26856188  0.68168578  0.51075955     1.49000
C336        C  0.28275758  0.72673335  0.46937573     0.92900
O337        O  0.20778450  0.74227086  0.47519141    -0.80700
O338        O  0.18487766  0.69633818  0.54533218    -0.74200
Al339      Al  0.23209003  0.74074942  0.51008069     1.90100
O340        O  0.17757649  0.70444549  0.48487792    -0.73300
O341        O  0.21485369  0.64661230  0.53632489    -0.73200
O342        O  0.21097340  0.65809130  0.47407658    -0.78800
O343        O  0.26003986  0.66301110  0.54717653    -0.77000
O344        O  0.23336428  0.70042479  0.51042658    -1.13200
O345        O  0.28941374  0.71076269  0.53352728    -0.72400
C346        C  0.28141400  0.73287336  0.54918225     0.98400
C347        C  0.18421873  0.72752085  0.46987346     0.94800
Al348      Al  0.19982341  0.67818891  0.51017172     1.55600
O349        O  0.26698863  0.74575035  0.48376346    -0.77000
C350        C  0.23773830  0.64678385  0.55316501     0.98900
C351        C  0.18305455  0.72397865  0.55128669     0.93800
O352        O  0.19765913  0.74336788  0.53635267    -0.82300
O353        O  0.25871415  0.53121873  0.74951037    -0.81800
C354        C  0.36146298  0.46024076  0.77101160     0.97600
O355        O  0.35758465  0.47697784  0.74866094    -0.70900
O356        O  0.30574939  0.45903576  0.72853854    -0.74500
Al357      Al  0.32187609  0.49711493  0.73662803     1.49000
C358        C  0.27802029  0.45383340  0.72662190     0.92900
O359        O  0.26463816  0.46355942  0.80111910    -0.80700
O360        O  0.30836414  0.53640069  0.81900468    -0.74200
Al361      Al  0.26426111  0.49733892  0.77522261     1.90100
O362        O  0.30318561  0.47567901  0.82939700    -0.73300
O363        O  0.35666698  0.52857085  0.78717446    -0.73200
O364        O  0.34896486  0.46610530  0.79556151    -0.78800
O365        O  0.33911121  0.53521741  0.74160123    -0.77000
O366        O  0.30435456  0.49872965  0.77250695    -1.13200
O367        O  0.29089695  0.51666818  0.71517071    -0.72400
C368        C  0.26965142  0.53335236  0.72350093     0.98400
C369        C  0.28049806  0.45949230  0.82415927     0.94800
Al370      Al  0.32744317  0.50147560  0.80509896     1.55600
O371        O  0.25913571  0.46903679  0.74184061    -0.77000
C372        C  0.35514934  0.54382712  0.76319251     0.98900
C373        C  0.28075283  0.54147379  0.82207706     0.93800
O374        O  0.26141272  0.52541971  0.80866012    -0.82300
O375        O  0.53724048  0.74080256  0.27240415    -0.81800
C376        C  0.46092365  0.77066379  0.37000358     0.97600
O377        O  0.47824336  0.74839466  0.36863123    -0.70900
O378        O  0.46266422  0.72445169  0.31768225    -0.74500
Al379      Al  0.49987602  0.73359144  0.33491471     1.49000
C380        C  0.45913987  0.72001440  0.28997866     0.92900
O381        O  0.46971902  0.79332350  0.27161475    -0.80700
O382        O  0.54026742  0.81429702  0.31727839    -0.74200
Al383      Al  0.50328433  0.76732909  0.27470291     1.90100
O384        O  0.47997321  0.82451719  0.30857004    -0.73300
O385        O  0.53005206  0.78668121  0.36744356    -0.73200
O386        O  0.46744169  0.79451871  0.35639985    -0.78800
O387        O  0.53695194  0.73992000  0.35298279    -0.77000
O388        O  0.50257274  0.76790687  0.31492731    -1.13200
O389        O  0.52079192  0.70972073  0.30676838    -0.72400
C390        C  0.53821661  0.71561587  0.28535819     0.98400
C391        C  0.46474063  0.81737127  0.28580987     0.94800
Al392      Al  0.50429735  0.80225656  0.33575028     1.55600
O393        O  0.47529231  0.73368266  0.27079944    -0.77000
C394        C  0.54563206  0.76277581  0.36718901     0.98900
C395        C  0.54679424  0.81485467  0.28981820     0.93800
O396        O  0.53144972  0.80028117  0.27080791    -0.82300
O397        O  0.74458182  0.53449375  0.26858706    -0.81800
C398        C  0.64776244  0.45580039  0.24438015     0.97600
O399        O  0.65034350  0.47219665  0.26726205    -0.70900
O400        O  0.70212755  0.46071923  0.29007894    -0.74500
Al401      Al  0.68271119  0.49668131  0.28017050     1.49000
C402        C  0.72999970  0.45658243  0.29184577     0.92900
O403        O  0.74386982  0.46577405  0.21860207    -0.80700
O404        O  0.69700376  0.53634425  0.19833042    -0.74200
Al405      Al  0.74169094  0.50003514  0.24360677     1.90100
O406        O  0.70619078  0.47608442  0.18849392    -0.73300
O407        O  0.64762876  0.52555473  0.22727732    -0.73200
O408        O  0.65947267  0.46345312  0.21992091    -0.78800
O409        O  0.66138246  0.53229610  0.27401861    -0.77000
O410        O  0.70132292  0.49915808  0.24496470    -1.13200
O411        O  0.71067117  0.52057115  0.30157660    -0.72400
C412        C  0.73202035  0.53741379  0.29373498     0.98400
C413        C  0.72902494  0.46070865  0.19512469     0.94800
Al414      Al  0.67938177  0.50029601  0.21134048     1.55600
O415        O  0.74809971  0.47306334  0.27735103    -0.77000
C416        C  0.64602547  0.54001591  0.25169326     0.98900
C417        C  0.72447147  0.54251626  0.19628615     0.93800
O418        O  0.74402532  0.52723339  0.21008052    -0.82300
O419        O  0.74728235  0.74519160  0.47395669    -0.81800
C420        C  0.76735945  0.64465552  0.55017061     0.97600
O421        O  0.74524724  0.64832304  0.53299111    -0.70900
O422        O  0.72283771  0.70053051  0.54540825    -0.74500
Al423      Al  0.73380391  0.68225140  0.50932831     1.49000
C424        C  0.72124693  0.72837652  0.55007451     0.92900
O425        O  0.79544303  0.74190675  0.54375749    -0.80700
O426        O  0.81721775  0.69566278  0.47379821    -0.74200
Al427      Al  0.77130379  0.74074632  0.50897350     1.90100
O428        O  0.82499669  0.70349170  0.53390742    -0.73300
O429        O  0.78707617  0.64660401  0.48241403    -0.73200
O430        O  0.79202424  0.65714887  0.54455343    -0.78800
O431        O  0.74143216  0.66265210  0.47314731    -0.77000
O432        O  0.76931584  0.70034175  0.50892506    -1.13200
O433        O  0.71339123  0.71153254  0.48596041    -0.72400
C434        C  0.72183264  0.73346904  0.47023824     0.98400
C435        C  0.81866153  0.72661962  0.54899886     0.94800
Al436      Al  0.80253965  0.67763450  0.50868861     1.55600
O437        O  0.73687091  0.74679141  0.53501252    -0.77000
C438        C  0.76382829  0.64694459  0.46616230     0.98900
C439        C  0.81989850  0.72322270  0.46813226     0.93800
O440        O  0.80567751  0.74292254  0.48292321    -0.82300
O441        O  0.74159035  0.46618952  0.75287957    -0.81800
C442        C  0.64131941  0.54132876  0.77666372     0.97600
O443        O  0.64394523  0.52380469  0.75453842    -0.70900
O444        O  0.69494423  0.53736502  0.73030466    -0.74500
Al445      Al  0.67786087  0.50076780  0.74156497     1.49000
C446        C  0.72257757  0.54212171  0.72684713     0.92900
O447        O  0.73789560  0.53686137  0.80180600    -0.80700
O448        O  0.69382298  0.46446137  0.82331439    -0.74200
Al449      Al  0.73713041  0.50163412  0.77731688     1.90100
O450        O  0.70130028  0.52488177  0.83280030    -0.73300
O451        O  0.64351994  0.47321253  0.79489255    -0.73200
O452        O  0.65423458  0.53558114  0.80098429    -0.78800
O453        O  0.65936791  0.46386473  0.74924787    -0.77000
O454        O  0.69684545  0.50062660  0.77644022    -1.13200
O455        O  0.70694938  0.47801418  0.72010147    -0.72400
C456        C  0.72897238  0.46207331  0.72786193     0.98400
C457        C  0.72347693  0.54116828  0.82589795     0.94800
Al458      Al  0.67502915  0.49957968  0.81020065     1.55600
O459        O  0.74178153  0.52782726  0.74228265    -0.77000
C460        C  0.64371106  0.45682075  0.77159266     0.98900
C461        C  0.72155947  0.46000761  0.82616977     0.93800
O462        O  0.74065134  0.47565531  0.81195809    -0.82300
O463        O  0.46780591  0.74347672  0.74761509    -0.81800
C464        C  0.54310935  0.76799720  0.64867571     0.97600
O465        O  0.52549099  0.74604404  0.65092531    -0.70900
O466        O  0.54140771  0.72388407  0.70245764    -0.74500
Al467      Al  0.50412712  0.73289747  0.68538796     1.49000
C468        C  0.54553892  0.72062523  0.73022840     0.92900
O469        O  0.53619441  0.79472029  0.74626610    -0.80700
O470        O  0.46574177  0.81528218  0.70058557    -0.74200
Al471      Al  0.50216432  0.76911753  0.74432819     1.90100
O472        O  0.52609891  0.82447169  0.70820885    -0.73300
O473        O  0.47419594  0.78528313  0.65152275    -0.73200
O474        O  0.53705959  0.79244494  0.66137821    -0.78800
O475        O  0.46692000  0.73908134  0.66743111    -0.77000
O476        O  0.50231975  0.76809989  0.70414984    -1.13200
O477        O  0.48314395  0.71028862  0.71461645    -0.72400
C478        C  0.46581035  0.71787821  0.73556962     0.98400
C479        C  0.54131970  0.81817070  0.73124197     0.94800
Al480      Al  0.50090182  0.80165771  0.68216608     1.55600
O481        O  0.52979611  0.73516371  0.74916884    -0.77000
C482        C  0.45848180  0.76145420  0.65239480     0.98900
C483        C  0.45949877  0.81706089  0.72801721     0.93800
O484        O  0.47451589  0.80269019  0.74740785    -0.82300
O485        O  0.53234484  0.25684473  0.75083461    -0.81800
C486        C  0.46110242  0.23232040  0.64876081     0.97600
O487        O  0.47814778  0.25460690  0.65209434    -0.70900
O488        O  0.46088780  0.27654257  0.70302933    -0.74500
Al489      Al  0.49862500  0.26769277  0.68722706     1.49000
C490        C  0.45550233  0.27980540  0.73055563     0.92900
O491        O  0.46366182  0.20658392  0.74659436    -0.80700
O492        O  0.53625782  0.18579969  0.70393679    -0.74200
Al493      Al  0.49795719  0.23164491  0.74618083     1.90100
O494        O  0.47538808  0.17637407  0.70920207    -0.73300
O495        O  0.52961375  0.21512593  0.65433384    -0.73200
O496        O  0.46663859  0.20802828  0.66191778    -0.78800
O497        O  0.53632403  0.26149917  0.67013500    -0.77000
O498        O  0.49958828  0.23259114  0.70598042    -1.13200
O499        O  0.51883176  0.29022733  0.71738228    -0.72400
C500        C  0.53498547  0.28251048  0.73917440     0.98400
C501        C  0.45890169  0.18323726  0.73128867     0.94800
Al502      Al  0.50182708  0.19899609  0.68412396     1.55600
O503        O  0.47058930  0.26569287  0.75012545    -0.77000
C504        C  0.54494525  0.23918623  0.65499373     0.98900
C505        C  0.54129669  0.18420394  0.73159843     0.93800
O506        O  0.52497640  0.19797199  0.75041621    -0.82300
O507        O  0.74451638  0.25752077  0.54314187    -0.81800
C508        C  0.77070548  0.35655854  0.46782279     0.97600
O509        O  0.74805873  0.35449426  0.48464836    -0.70900
O510        O  0.72457508  0.30349610  0.47089801    -0.74500
Al511      Al  0.73451251  0.32091279  0.50757009     1.49000
C512        C  0.72068279  0.27584995  0.46646871     0.92900
O513        O  0.79486205  0.25904362  0.47422350    -0.80700
O514        O  0.81620280  0.30401843  0.54555605    -0.74200
Al515      Al  0.76970432  0.26099184  0.50855008     1.90100
O516        O  0.82565184  0.29619183  0.48516982    -0.73300
O517        O  0.78770970  0.35421631  0.53726743    -0.73200
O518        O  0.79485417  0.34388715  0.47472266    -0.78800
O519        O  0.74109210  0.33995145  0.54442218    -0.77000
O520        O  0.76929429  0.30145044  0.50901247    -1.13200
O521        O  0.71219297  0.29220768  0.52978958    -0.72400
C522        C  0.71938578  0.27028158  0.54608480     0.98400
C523        C  0.81890607  0.27333835  0.46968330     0.94800
Al524      Al  0.80326297  0.32286460  0.51057100     1.55600
O525        O  0.73518974  0.25650650  0.48157579    -0.77000
C526        C  0.76369154  0.35465856  0.55268781     0.98900
C527        C  0.81848812  0.27633100  0.55047709     0.93800
O528        O  0.80375427  0.25725616  0.53529310    -0.82300
C529        C  0.66115582  0.26758955  0.59752629     0.29800
C530        C  0.63859224  0.28094836  0.61476358    -0.36500
C531        C  0.61468391  0.26234992  0.62278151     0.15800
C532        C  0.61281898  0.23242467  0.61468825     0.21600
C533        C  0.63585064  0.21878867  0.59762888    -0.34600
C534        C  0.66006057  0.23758172  0.58947252     0.15700
O535        O  0.68356476  0.28203602  0.58495581    -0.26700
C536        C  0.69765621  0.26116008  0.56895382     0.05500
C537        C  0.68424380  0.23287955  0.57093662    -0.31500
O538        O  0.58761199  0.21975105  0.62431232    -0.23400
C539        C  0.57349196  0.24211124  0.63856863    -0.03400
C540        C  0.58941002  0.26895441  0.63825636    -0.17800
H541        H  0.63910885  0.30460513  0.62059702     0.20200
H542        H  0.63458986  0.19552104  0.59052478     0.18600
H543        H  0.68969089  0.21278080  0.55828733     0.18500
H544        H  0.58325351  0.29034238  0.64822491     0.14400
C545        C  0.57252654  0.34366222  0.77031533     0.29800
C546        C  0.57531956  0.36975290  0.78809681    -0.36500
C547        C  0.59679565  0.39090560  0.77847908     0.15800
C548        C  0.61403723  0.38655023  0.75304981     0.21600
C549        C  0.61146596  0.36052384  0.73552988    -0.34600
C550        C  0.59027076  0.33944511  0.74520437     0.15700
O551        O  0.55199410  0.32236747  0.77322971    -0.26700
C552        C  0.55713960  0.30419869  0.74995722     0.05500
C553        C  0.58057913  0.31380362  0.73178527    -0.31500
O554        O  0.63204270  0.40927443  0.74748539    -0.23400
C555        C  0.62664763  0.42858601  0.76966350    -0.03400
C556        C  0.60490353  0.41841965  0.78978942    -0.17800
H557        H  0.56118187  0.37366544  0.80750160     0.20200
H558        H  0.62458302  0.35728865  0.71529768     0.18600
H559        H  0.58758567  0.30465811  0.71033817     0.18500
H560        H  0.59633534  0.42963402  0.80961568     0.14400
C561        C  0.60925786  0.60685857  0.74894858     0.29800
C562        C  0.60159086  0.62679783  0.72612141    -0.36500
C563        C  0.58992975  0.65442253  0.73532054     0.15800
C564        C  0.58528567  0.66203199  0.76500138     0.21600
C565        C  0.59382007  0.64217806  0.78816452    -0.34600
C566        C  0.60610764  0.61438902  0.77886900     0.15700
O567        O  0.62050034  0.57989394  0.74482667    -0.26700
C568        C  0.62511612  0.56969213  0.77235168     0.05500
C569        C  0.61679304  0.59021101  0.79465611    -0.31500
O570        O  0.57055469  0.68783765  0.76785019    -0.23400
C571        C  0.56645545  0.69676524  0.73955073    -0.03400
C572        C  0.57851592  0.67696130  0.71861731    -0.17800
H573        H  0.60407693  0.62091948  0.70264971     0.20200
H574        H  0.59047188  0.64766400  0.81162103     0.18600
H575        H  0.61889804  0.58788470  0.81874285     0.18500
H576        H  0.57657554  0.67764421  0.69440106     0.14400
C577        C  0.74190802  0.38521830  0.62183569     0.29800
C578        C  0.72185713  0.39036549  0.64554418    -0.36500
C579        C  0.73264203  0.40792909  0.66925673     0.15800
C580        C  0.76127639  0.41980725  0.66983997     0.21600
C581        C  0.78163503  0.41423183  0.64611038    -0.34600
C582        C  0.77074092  0.39660117  0.62212662     0.15700
O583        O  0.73589646  0.36998531  0.59725665    -0.26700
C584        C  0.76110775  0.37137479  0.58123096     0.05500
C585        C  0.78372158  0.38767300  0.59556645    -0.31500
O586        O  0.76513133  0.43863720  0.69263834    -0.23400
C587        C  0.73865649  0.43844590  0.70678187    -0.03400
C588        C  0.71779848  0.41964004  0.69320143    -0.17800
H589        H  0.69900198  0.38203987  0.64506315     0.20200
H590        H  0.80394938  0.42389047  0.64582073     0.18600
H591        H  0.80636070  0.39196117  0.58776287     0.18500
H592        H  0.69415392  0.41733033  0.69854676     0.14400
C593        C  0.75614166  0.58327788  0.66813128     0.29800
C594        C  0.77908113  0.59430128  0.64919630    -0.36500
C595        C  0.76960588  0.60668496  0.62164506     0.15800
C596        C  0.73973173  0.60778396  0.61343709     0.21600
C597        C  0.71702809  0.59741084  0.63240863    -0.34600
C598        C  0.72639667  0.58553015  0.65979296     0.15700
O599        O  0.75943520  0.56881106  0.69396647    -0.26700
C600        C  0.73127701  0.56241234  0.70217144     0.05500
C601        C  0.71003648  0.57259440  0.68178710    -0.31500
O602        O  0.73553965  0.61997768  0.58694813    -0.23400
C603        C  0.76299038  0.62714546  0.57776454    -0.03400
C604        C  0.78522961  0.61953650  0.59844989    -0.17800
H605        H  0.80258087  0.59294136  0.65527394     0.20200
H606        H  0.69355818  0.59830976  0.62610606     0.18600
H607        H  0.68595402  0.56906492  0.68210205     0.18500
H608        H  0.80917473  0.62355157  0.59690896     0.14400
C609        C  0.66027312  0.73349890  0.59789191     0.29800
C610        C  0.63554841  0.72099627  0.61251796    -0.36500
C611        C  0.61239519  0.74088923  0.61954355     0.15800
C612        C  0.61361040  0.77133951  0.61358051     0.21600
C613        C  0.63864229  0.78399853  0.59891467    -0.34600
C614        C  0.66174608  0.76379011  0.59112523     0.15700
O615        O  0.68245681  0.71804083  0.58623341    -0.26700
C616        C  0.69858701  0.73838853  0.57161584     0.05500
C617        C  0.68703329  0.76744574  0.57399036    -0.31500
O618        O  0.58899870  0.78552237  0.62244913    -0.23400
C619        C  0.57187197  0.76350503  0.63339552    -0.03400
C620        C  0.58532737  0.73540544  0.63212134    -0.17800
H621        H  0.63390405  0.69709660  0.61689765     0.20200
H622        H  0.63957169  0.80762443  0.59308755     0.18600
H623        H  0.69451308  0.78757310  0.56253330     0.18500
H624        H  0.57669158  0.71412122  0.64019374     0.14400
C625        C  0.74730304  0.38224281  0.39804080     0.29800
C626        C  0.72652577  0.38640841  0.37504115    -0.36500
C627        C  0.73657977  0.40290146  0.35037261     0.15800
C628        C  0.76517749  0.41474788  0.34824523     0.21600
C629        C  0.78658035  0.40937925  0.37088272    -0.34600
C630        C  0.77642565  0.39271905  0.39580051     0.15700
O631        O  0.74159602  0.36940406  0.42393616    -0.26700
C632        C  0.76740449  0.37118296  0.43862567     0.05500
C633        C  0.79016186  0.38508492  0.42216278    -0.31500
O634        O  0.76782164  0.43372549  0.32549340    -0.23400
C635        C  0.74059186  0.43361605  0.31304455    -0.03400
C636        C  0.72060683  0.41437906  0.32733347    -0.17800
H637        H  0.70351915  0.37873406  0.37700514     0.20200
H638        H  0.80891511  0.41895572  0.36997537     0.18600
H639        H  0.81315123  0.38926952  0.42882236     0.18500
H640        H  0.69673437  0.41188155  0.32336674     0.14400
C641        C  0.76354062  0.57977535  0.35117557     0.29800
C642        C  0.78353161  0.58550061  0.37496388    -0.36500
C643        C  0.77237978  0.60387151  0.39821114     0.15800
C644        C  0.74372951  0.61578293  0.39764990     0.21600
C645        C  0.72410541  0.61048599  0.37390368    -0.34600
C646        C  0.73507342  0.59214963  0.35099845     0.15700
O647        O  0.76749570  0.56038113  0.32900317    -0.26700
C648        C  0.74127024  0.56078001  0.31467381     0.05500
C649        C  0.72040868  0.58013101  0.32732876    -0.31500
O650        O  0.73729383  0.63153544  0.42166029    -0.23400
C651        C  0.76198366  0.62991228  0.43814590    -0.03400
C652        C  0.78479643  0.61302128  0.42478676    -0.17800
H653        H  0.80563051  0.57539488  0.37587299     0.20200
H654        H  0.70139400  0.61919659  0.37384826     0.18600
H655        H  0.69693033  0.58273230  0.32154502     0.18500
H656        H  0.80711405  0.60846798  0.43322644     0.14400
C657        C  0.66603955  0.73912827  0.41691733     0.29800
C658        C  0.64451850  0.72624907  0.39820492    -0.36500
C659        C  0.61873347  0.74333315  0.39332502     0.15800
C660        C  0.61427729  0.77161642  0.40536633     0.21600
C661        C  0.63630176  0.78493056  0.42378541    -0.34600
C662        C  0.66223293  0.76748813  0.42911046     0.15700
O663        O  0.68929645  0.72482647  0.42797995    -0.26700
C664        C  0.70117984  0.74421275  0.44720697     0.05500
C665        C  0.68546517  0.77131861  0.44882478    -0.31500
O666        O  0.58752548  0.78274615  0.39844492    -0.23400
C667        C  0.57497045  0.76092393  0.38213718    -0.03400
C668        C  0.59347651  0.73607345  0.37831791    -0.17800
H669        H  0.64693917  0.70362409  0.38945005     0.20200
H670        H  0.63287083  0.80663625  0.43432179     0.18600
H671        H  0.68857021  0.78949990  0.46471830     0.18500
H672        H  0.58896870  0.71552972  0.36600743     0.14400
C673        C  0.58209262  0.65147473  0.28377014     0.29800
C674        C  0.59378307  0.62554966  0.29681840    -0.36500
C675        C  0.60533684  0.60419330  0.27705153     0.15800
C676        C  0.60562810  0.60779647  0.24630798     0.21600
C677        C  0.59388260  0.63415356  0.23306317    -0.34600
C678        C  0.58218998  0.65586735  0.25310174     0.15700
O679        O  0.56837687  0.67297976  0.29846325    -0.26700
C680        C  0.55959560  0.69195012  0.27732400     0.05500
C681        C  0.56768973  0.68276026  0.24844713    -0.31500
O682        O  0.61868541  0.58478113  0.23248882    -0.23400
C683        C  0.62664249  0.56659979  0.25495650    -0.03400
C684        C  0.61872874  0.57761747  0.28299090    -0.17800
H685        H  0.59354122  0.62211108  0.32086471     0.20200
H686        H  0.59375998  0.63742830  0.20900729     0.18600
H687        H  0.56169687  0.69301345  0.22728034     0.18500
H688        H  0.62339219  0.56796047  0.30478616     0.14400
C689        C  0.41561873  0.33920394  0.76287847     0.29800
C690        C  0.40797288  0.36029105  0.78520306    -0.36500
C691        C  0.39658059  0.38789499  0.77482717     0.15800
C692        C  0.39331966  0.39419671  0.74466807     0.21600
C693        C  0.40007415  0.37299358  0.72261026    -0.34600
C694        C  0.41089323  0.34548325  0.73292963     0.15700
O695        O  0.43006509  0.31348678  0.76675800    -0.26700
C696        C  0.43394579  0.30327417  0.73887930     0.05500
C697        C  0.42185925  0.32203920  0.71716281    -0.31500
O698        O  0.38247004  0.42114944  0.73970530    -0.23400
C699        C  0.37831519  0.43239187  0.76697003    -0.03400
C700        C  0.38660622  0.41276400  0.78983779    -0.17800
H701        H  0.41140656  0.35584911  0.80882171     0.20200
H702        H  0.39756261  0.37781914  0.69893742     0.18600
H703        H  0.42396015  0.32032949  0.69299168     0.18500
H704        H  0.38445340  0.41592557  0.81383875     0.14400
C705        C  0.39719553  0.61040973  0.77007379     0.29800
C706        C  0.41566386  0.63207649  0.78381848    -0.36500
C707        C  0.42323575  0.65720900  0.76621517     0.15800
C708        C  0.41339899  0.66047353  0.73702619     0.21600
C709        C  0.39481444  0.63910562  0.72345612    -0.34600
C710        C  0.38726902  0.61420302  0.74099740     0.15700
O711        O  0.38773672  0.58483780  0.78194972    -0.26700
C712        C  0.37168462  0.57227583  0.76005908     0.05500
C713        C  0.37065719  0.58960549  0.73415504    -0.31500
O714        O  0.42549693  0.68374086  0.72349414    -0.23400
C715        C  0.44285422  0.69614295  0.74429530    -0.03400
C716        C  0.44242457  0.68066140  0.77140602    -0.17800
H717        H  0.42417082  0.62917717  0.80651775     0.20200
H718        H  0.38747741  0.64130325  0.70031875     0.18600
H719        H  0.35919659  0.58478285  0.71328987     0.18500
H720        H  0.45641520  0.68444713  0.79099917     0.14400
C721        C  0.25787141  0.61259708  0.62019592     0.29800
C722        C  0.27728237  0.60679374  0.64395215    -0.36500
C723        C  0.26633383  0.58771377  0.66615968     0.15800
C724        C  0.23815895  0.57474177  0.66520829     0.21600
C725        C  0.21846427  0.58077159  0.64125274    -0.34600
C726        C  0.22945236  0.60019074  0.61882955     0.15700
O727        O  0.26410854  0.62971877  0.59713916    -0.26700
C728        C  0.23952556  0.62857943  0.58044317     0.05500
C729        C  0.21703259  0.61052473  0.59269956    -0.31500
O730        O  0.23408758  0.55519833  0.68723890    -0.23400
C731        C  0.25985029  0.55636424  0.70240628    -0.03400
C732        C  0.28057622  0.57609524  0.69020399    -0.17800
H733        H  0.29985048  0.61615042  0.64475777     0.20200
H734        H  0.19628108  0.57038242  0.63979610     0.18600
H735        H  0.19473634  0.60600832  0.58383857     0.18500
H736        H  0.30376630  0.57935080  0.69666919     0.14400
C737        C  0.34131785  0.76092642  0.42885037     0.29800
C738        C  0.36182807  0.78370641  0.42065671    -0.36500
C739        C  0.38838793  0.77396753  0.40627961     0.15800
C740        C  0.39419922  0.74393354  0.40080510     0.21600
C741        C  0.37357600  0.72148333  0.40818820    -0.34600
C742        C  0.34717851  0.73117881  0.42209911     0.15700
O743        O  0.31647896  0.76411027  0.44505864    -0.26700
C744        C  0.30640825  0.73599195  0.44815342     0.05500
C745        C  0.32453363  0.71482102  0.43397614    -0.31500
O746        O  0.42058364  0.73935743  0.38844721    -0.23400
C747        C  0.43207033  0.76673597  0.38545726    -0.03400
C748        C  0.41298452  0.78938272  0.39588447    -0.17800
H749        H  0.35780027  0.80715100  0.42587770     0.20200
H750        H  0.37816935  0.69790939  0.40405641     0.18600
H751        H  0.32263459  0.69052735  0.43451911     0.18500
H752        H  0.41671729  0.81344303  0.39585049     0.14400
C753        C  0.33893068  0.73630832  0.60074347     0.29800
C754        C  0.36124886  0.72277326  0.61803836    -0.36500
C755        C  0.38655340  0.74032061  0.62387775     0.15800
C756        C  0.38991857  0.76945648  0.61376382     0.21600
C757        C  0.36721639  0.78325350  0.59656714    -0.34600
C758        C  0.34165299  0.76550794  0.59053749     0.15700
O759        O  0.31549419  0.72235236  0.58960948    -0.26700
C760        C  0.30239689  0.74277020  0.57234008     0.05500
C761        C  0.31752790  0.77023597  0.57208997    -0.31500
O762        O  0.41612161  0.78121663  0.62168338    -0.23400
C763        C  0.42944725  0.75903322  0.63680308    -0.03400
C764        C  0.41196766  0.73322663  0.63878177    -0.17800
H765        H  0.35954412  0.69962427  0.62539610     0.20200
H766        H  0.36970291  0.80580341  0.58773725     0.18600
H767        H  0.31340123  0.78943791  0.55775266     0.18500
H768        H  0.41714431  0.71226068  0.65000268     0.14400
C769        C  0.27311856  0.40894342  0.66297997     0.29800
C770        C  0.28481636  0.39721067  0.63630158    -0.36500
C771        C  0.26378270  0.38791297  0.61507514     0.15800
C772        C  0.23316154  0.38911034  0.61984208     0.21600
C773        C  0.22134217  0.40099865  0.64675258    -0.34600
C774        C  0.24256010  0.41107876  0.66793738     0.15700
O775        O  0.28901695  0.42158640  0.68429234    -0.26700
C776        C  0.26867538  0.43234084  0.70335880     0.05500
C777        C  0.23923689  0.42635182  0.69450035    -0.31500
O778        O  0.21784234  0.37837048  0.59674051    -0.23400
C779        C  0.23915563  0.37097331  0.57695039    -0.03400
C780        C  0.26802064  0.37652582  0.58722439    -0.17800
H781        H  0.30874877  0.39633816  0.63197847     0.20200
H782        H  0.19739521  0.40294137  0.65057675     0.18600
H783        H  0.21859501  0.43415027  0.70479181     0.18500
H784        H  0.28917412  0.37168195  0.57615796     0.14400
C785        C  0.39656837  0.25922445  0.61430788     0.29800
C786        C  0.37638755  0.28170791  0.60599713    -0.36500
C787        C  0.34910333  0.27182087  0.59426471     0.15800
C788        C  0.34208513  0.24184500  0.59019686     0.21600
C789        C  0.36218601  0.21912123  0.59923121    -0.34600
C790        C  0.38956321  0.22907806  0.61154692     0.15700
O791        O  0.42312821  0.26382040  0.62614234    -0.26700
C792        C  0.43348406  0.23635766  0.63145840     0.05500
C793        C  0.41356033  0.21368748  0.62298373    -0.31500
O794        O  0.31641290  0.23819858  0.57567028    -0.23400
C795        C  0.30695151  0.26628426  0.57104410    -0.03400
C796        C  0.32627338  0.28791885  0.58256528    -0.17800
H797        H  0.38175026  0.30537042  0.60822986     0.20200
H798        H  0.35710669  0.19547418  0.59638083     0.18600
H799        H  0.41603040  0.18961373  0.62569656     0.18500
H800        H  0.32498778  0.31215053  0.58025243     0.14400
C801        C  0.42181979  0.65943443  0.25633230     0.29800
C802        C  0.41485150  0.63845597  0.23366449    -0.36500
C803        C  0.40135144  0.61149363  0.24334014     0.15800
C804        C  0.39575116  0.60557540  0.27324627     0.21600
C805        C  0.40218479  0.62658353  0.29565152    -0.34600
C806        C  0.41495686  0.65356631  0.28596542     0.15700
O807        O  0.43663023  0.68505897  0.25307123    -0.26700
C808        C  0.43864660  0.69572748  0.28098524     0.05500
C809        C  0.42514252  0.67717767  0.30215845    -0.31500
O810        O  0.38285219  0.57937574  0.27754968    -0.23400
C811        C  0.37960330  0.56826146  0.25009626    -0.03400
C812        C  0.39065976  0.58722095  0.22775549    -0.17800
H813        H  0.41985119  0.64270253  0.21026909     0.20200
H814        H  0.39760354  0.62214013  0.31910173     0.18600
H815        H  0.42527403  0.67942890  0.32636371     0.18500
H816        H  0.38996239  0.58403267  0.20368104     0.14400
C817        C  0.23545408  0.61039595  0.39860835     0.29800
C818        C  0.22354395  0.59759870  0.37229344    -0.36500
C819        C  0.24466687  0.58702499  0.35123021     0.15800
C820        C  0.27525551  0.58951662  0.35570774     0.21600
C821        C  0.28707868  0.60232320  0.38176131    -0.34600
C822        C  0.26610203  0.61214450  0.40293232     0.15700
O823        O  0.22013333  0.62125513  0.42167575    -0.26700
C824        C  0.24143320  0.62936290  0.44101860     0.05500
C825        C  0.27035433  0.62417930  0.43049634    -0.31500
O826        O  0.29103758  0.57614635  0.33468349    -0.23400
C827        C  0.27053925  0.56466259  0.31636191    -0.03400
C828        C  0.24116746  0.57083008  0.32533677    -0.17800
H829        H  0.19958100  0.59522135  0.36890708     0.20200
H830        H  0.31103887  0.60347719  0.38575100     0.18600
H831        H  0.29148761  0.62938390  0.44130640     0.18500
H832        H  0.22047147  0.56266411  0.31555383     0.14400
C833        C  0.25775841  0.38206230  0.39561695     0.29800
C834        C  0.27727339  0.38669982  0.37146663    -0.36500
C835        C  0.26746926  0.40692410  0.34967666     0.15800
C836        C  0.24023260  0.42171632  0.35134748     0.21600
C837        C  0.22043273  0.41681251  0.37559840    -0.34600
C838        C  0.23033972  0.39645599  0.39763978     0.15700
O839        O  0.26330374  0.36486578  0.41880808    -0.26700
C840        C  0.23923963  0.36797218  0.43621008     0.05500
C841        C  0.21775292  0.38734625  0.42425110    -0.31500
O842        O  0.23723612  0.44199722  0.32987267    -0.23400
C843        C  0.26277865  0.43975318  0.31434940    -0.03400
C844        C  0.28234451  0.41837586  0.32571469    -0.17800
H845        H  0.29909144  0.37596929  0.37026229     0.20200
H846        H  0.19933747  0.42879289  0.37765951     0.18600
H847        H  0.19631102  0.39384725  0.43378553     0.18500
H848        H  0.30524485  0.41382347  0.31879215     0.14400
C849        C  0.60730675  0.26135059  0.40083205     0.29800
C850        C  0.62715413  0.28360655  0.41045584    -0.36500
C851        C  0.65430362  0.27346488  0.42228657     0.15800
C852        C  0.66154583  0.24343441  0.42532815     0.21600
C853        C  0.64174376  0.22093002  0.41500627    -0.34600
C854        C  0.61448171  0.23116876  0.40255812     0.15700
O855        O  0.58093123  0.26625716  0.38867191    -0.26700
C856        C  0.57081676  0.23896431  0.38211269     0.05500
C857        C  0.59073704  0.21610155  0.39012415    -0.31500
O858        O  0.68716016  0.23950529  0.44000803    -0.23400
C859        C  0.69635702  0.26752527  0.44570098    -0.03400
C860        C  0.67687222  0.28931274  0.43476652    -0.17800
H861        H  0.62167073  0.30730057  0.40904918     0.20200
H862        H  0.64696511  0.19722500  0.41695254     0.18600
H863        H  0.58839456  0.19211427  0.38657177     0.18500
H864        H  0.67795455  0.31348045  0.43778999     0.14400
C865        C  0.39258091  0.23416553  0.40476318     0.29800
C866        C  0.37068546  0.21996885  0.42272246    -0.36500
C867        C  0.34466908  0.23694811  0.42902479     0.15800
C868        C  0.34075796  0.26585963  0.41842762     0.21600
C869        C  0.36236706  0.27985196  0.40040814    -0.34600
C870        C  0.38818261  0.26302386  0.39427430     0.15700
O871        O  0.41869141  0.22279795  0.39597653    -0.26700
C872        C  0.43098964  0.24489447  0.37987265     0.05500
C873        C  0.41298563  0.27038815  0.37825020    -0.31500
O874        O  0.31685287  0.27905928  0.42972181    -0.23400
C875        C  0.30469416  0.25835352  0.44744482    -0.03400
C876        C  0.32093181  0.23154805  0.44787940    -0.17800
H877        H  0.37400103  0.19761138  0.43172272     0.20200
H878        H  0.35968679  0.30273593  0.39256049     0.18600
H879        H  0.41726320  0.29113206  0.36628919     0.18500
H880        H  0.31763576  0.21236313  0.46245063     0.14400
C881        C  0.59477788  0.33856681  0.27552138     0.29800
C882        C  0.60982730  0.36272815  0.28853364    -0.36500
C883        C  0.61805969  0.38579040  0.26913335     0.15800
C884        C  0.61291409  0.38502056  0.23861858     0.21600
C885        C  0.59784654  0.36043659  0.22537163    -0.34600
C886        C  0.58868175  0.33743661  0.24516385     0.15700
O887        O  0.58187038  0.31691621  0.29061362    -0.26700
C888        C  0.56692108  0.30142954  0.27008509     0.05500
C889        C  0.57044299  0.31286745  0.24112940    -0.31500
O890        O  0.62236789  0.40984063  0.22513416    -0.23400
C891        C  0.63285826  0.42657865  0.24768980    -0.03400
C892        C  0.63072824  0.41263875  0.27538850    -0.17800
H893        H  0.61342232  0.36417743  0.31251433     0.20200
H894        H  0.59250469  0.35991780  0.20169800     0.18600
H895        H  0.55907721  0.30590538  0.22083015     0.18500
H896        H  0.63794986  0.42099322  0.29704753     0.14400
C897        C  0.42330343  0.34110594  0.24563156     0.29800
C898        C  0.41879991  0.36610372  0.22676558    -0.36500
C899        C  0.39933364  0.38849984  0.23783530     0.15800
C900        C  0.38537384  0.38614323  0.26543765     0.21600
C901        C  0.38947980  0.36117457  0.28393935    -0.34600
C902        C  0.40881362  0.33901378  0.27298603     0.15700
O903        O  0.44320293  0.31934478  0.24176350    -0.26700
C904        C  0.44088757  0.30314381  0.26679788     0.05500
C905        C  0.41992696  0.31438763  0.28692199    -0.31500
O906        O  0.36928523  0.40990239  0.27224029    -0.23400
C907        C  0.37273769  0.42797974  0.24881331    -0.03400
C908        C  0.39110671  0.41589849  0.22646421    -0.17800
H909        H  0.43056891  0.36850485  0.20563718     0.20200
H910        H  0.37917590  0.35968512  0.30592543     0.18600
H911        H  0.41569854  0.30711102  0.30971835     0.18500
H912        H  0.39755200  0.42586707  0.20527455     0.14400
C913        C  0.63513804  0.90900433  0.75580497     0.29800
C914        C  0.61854916  0.89747453  0.73176330    -0.36500
C915        C  0.59886906  0.87391513  0.73864458     0.15800
C916        C  0.59609741  0.86193990  0.76709379     0.21600
C917        C  0.61261311  0.87362315  0.79127344    -0.34600
C918        C  0.63182980  0.89774459  0.78450809     0.15700
O919        O  0.65390404  0.93185263  0.75453410    -0.26700
C920        C  0.66231723  0.93564871  0.78284030     0.05500
C921        C  0.64932246  0.91519272  0.80256476    -0.31500
O922        O  0.57588790  0.84022486  0.76835835    -0.23400
C923        C  0.56539286  0.83871183  0.74044294    -0.03400
C924        C  0.57885247  0.85913565  0.72105810    -0.17800
H925        H  0.62032599  0.90673461  0.70937497     0.20200
H926        H  0.61010263  0.86503120  0.81385671     0.18600
H927        H  0.65218934  0.91366195  0.82663411     0.18500
H928        H  0.57431046  0.86270238  0.69747336     0.14400
C929        C  0.59470573  0.14014842  0.76873819     0.29800
C930        C  0.60794516  0.12526654  0.79303116    -0.36500
C931        C  0.62989222  0.10382498  0.78569754     0.15800
C932        C  0.63850194  0.09754436  0.75654232     0.21600
C933        C  0.62568378  0.11284308  0.73229963    -0.34600
C934        C  0.60355659  0.13407729  0.73961000     0.15700
O935        O  0.57202886  0.15925646  0.77014554    -0.26700
C936        C  0.56637955  0.16538529  0.74151999     0.05500
C937        C  0.58542637  0.15055266  0.72161787    -0.31500
O938        O  0.65811635  0.07532109  0.75482539    -0.23400
C939        C  0.66207438  0.06735709  0.78328093    -0.03400
C940        C  0.64521934  0.08441187  0.80341485    -0.17800
H941        H  0.60084225  0.12927607  0.81594596     0.20200
H942        H  0.63171227  0.10775557  0.70929010     0.18600
H943        H  0.58509317  0.15092990  0.69732290     0.18500
H944        H  0.64384017  0.08219068  0.82757455     0.14400
C945        C  0.77551932  0.36910271  0.11104262     0.29800
C946        C  0.78625935  0.38856948  0.13336701    -0.36500
C947        C  0.76439161  0.40519663  0.14881975     0.15800
C948        C  0.73413544  0.40315243  0.14230172     0.21600
C949        C  0.72335258  0.38317156  0.12053194    -0.34600
C950        C  0.74514527  0.36618164  0.10546668     0.15700
O951        O  0.79201357  0.35253610  0.09285247    -0.26700
C952        C  0.77188148  0.33840152  0.07594931     0.05500
C953        C  0.74237063  0.34581067  0.08285448    -0.31500
O954        O  0.71783894  0.42227056  0.15790732    -0.23400
C955        C  0.73781467  0.43636780  0.17497262    -0.03400
C956        C  0.76712753  0.42653628  0.17060096    -0.17800
H957        H  0.81002298  0.39101716  0.13794004     0.20200
H958        H  0.69965985  0.38144048  0.11529628     0.18600
H959        H  0.72201308  0.33824696  0.07192914     0.18500
H960        H  0.78747449  0.43480859  0.18101472     0.14400
C961        C  0.74548406  0.36801583  0.91850610     0.29800
C962        C  0.72129724  0.38132335  0.90357042    -0.36500
C963        C  0.72883875  0.40265663  0.88172905     0.15800
C964        C  0.75810466  0.41057391  0.87500886     0.21600
C965        C  0.78231671  0.39727925  0.88997974    -0.34600
C966        C  0.77477081  0.37584493  0.91175420     0.15700
O967        O  0.74368288  0.34762478  0.93989673    -0.26700
C968        C  0.77221381  0.34237641  0.94681044     0.05500
C969        C  0.79248403  0.35926512  0.93004661    -0.31500
O970        O  0.75979356  0.43150516  0.85410217    -0.23400
C971        C  0.73120871  0.43685890  0.84737890    -0.03400
C972        C  0.71104936  0.41958298  0.86385944    -0.17800
H973        H  0.69821001  0.37554351  0.90868308     0.20200
H974        H  0.80539711  0.40329911  0.88510646     0.18600
H975        H  0.81677994  0.35941270  0.93135497     0.18500
H976        H  0.68673135  0.41989852  0.86312943     0.14400
C977        C  0.75633719  0.11772282  0.89460734     0.29800
C978        C  0.77566076  0.14218951  0.89803551    -0.36500
C979        C  0.76536861  0.16529371  0.91660249     0.15800
C980        C  0.73789568  0.16457769  0.93103283     0.21600
C981        C  0.71818005  0.14006792  0.92717778    -0.34600
C982        C  0.72858317  0.11669488  0.90847601     0.15700
O983        O  0.76243030  0.09328494  0.87927614    -0.26700
C984        C  0.73838925  0.07606652  0.88312310     0.05500
C985        C  0.71634714  0.08940733  0.90101533    -0.31500
O986        O  0.73486717  0.18691703  0.95046843    -0.23400
C987        C  0.76059231  0.20206710  0.94793465    -0.03400
C988        C  0.78023834  0.18958468  0.92721995    -0.17800
H989        H  0.79777016  0.14260782  0.88786283     0.20200
H990        H  0.69693327  0.13869821  0.93894584     0.18600
H991        H  0.69475472  0.08033790  0.90758462     0.18500
H992        H  0.80341275  0.19564874  0.92307815     0.14400
C993        C  0.90220229  0.77338618  0.64037917     0.29800
C994        C  0.87948501  0.78394086  0.62137695    -0.36500
C995        C  0.86498259  0.76205037  0.60405777     0.15800
C996        C  0.87282251  0.73198805  0.60491146     0.21600
C997        C  0.89519204  0.72137049  0.62423927    -0.34600
C998        C  0.90920592  0.74315181  0.64206492     0.15700
O999        O  0.91913260  0.78996451  0.65802220    -0.26700
C1000       C  0.93665333  0.77000296  0.67162987     0.05500
C1001       C  0.93146616  0.74051327  0.66275592    -0.31500
O1002       O  0.85737163  0.71565683  0.58580104    -0.23400
C1003       C  0.83908152  0.73540663  0.57295198    -0.03400
C1004       C  0.84258738  0.76461200  0.58349105    -0.17800
H1005       H  0.87366792  0.80755460  0.62006826     0.20200
H1006       H  0.90133087  0.69782277  0.62518028     0.18600
H1007       H  0.94308871  0.72033109  0.66978708     0.18500
H1008       H  0.83103980  0.78479381  0.57632297     0.14400
C1009       C  0.10156841  0.77352744  0.64423652     0.29800
C1010       C  0.12298377  0.78352920  0.62338696    -0.36500
C1011       C  0.13772645  0.76106895  0.60689083     0.15800
C1012       C  0.13196044  0.73080400  0.61080026     0.21600
C1013       C  0.11084759  0.72075786  0.63199742    -0.34600
C1014       C  0.09594107  0.74326022  0.64837462     0.15700
O1015       O  0.08369373  0.79075574  0.66041379    -0.26700
C1016       C  0.06640891  0.77133113  0.67517652     0.05500
C1017       C  0.07312667  0.74142827  0.66876135    -0.31500
O1018       O  0.14733566  0.71380562  0.59198039    -0.23400
C1019       C  0.16316001  0.73344443  0.57586522    -0.03400
C1020       C  0.15815105  0.76317461  0.58419037    -0.17800
H1021       H  0.12716900  0.80722846  0.61961828     0.20200
H1022       H  0.10575517  0.69710590  0.63487423     0.18600
H1023       H  0.06197329  0.72139236  0.67694376     0.18500
H1024       H  0.16766663  0.78336194  0.57447334     0.14400
C1025       C  0.89077843  0.89085692  0.77166556     0.29800
C1026       C  0.87088860  0.89845885  0.79475184    -0.36500
C1027       C  0.84382548  0.91153700  0.78589429     0.15800
C1028       C  0.83666705  0.91720963  0.75632477     0.21600
C1029       C  0.85637399  0.90871777  0.73297071    -0.34600
C1030       C  0.88362907  0.89530062  0.74187496     0.15700
O1031       O  0.91771282  0.87943921  0.77534858    -0.26700
C1032       C  0.92824647  0.87611913  0.74763525     0.05500
C1033       C  0.90791626  0.88530083  0.72569675    -0.31500
O1034       O  0.81161813  0.93309947  0.75375715    -0.23400
C1035       C  0.80269764  0.93711322  0.78208395    -0.03400
C1036       C  0.82174755  0.92380441  0.80283605    -0.17800
H1037       H  0.87656569  0.89526948  0.81814851     0.20200
H1038       H  0.85132091  0.91322603  0.70965712     0.18600
H1039       H  0.91065650  0.88472293  0.70155815     0.18500
H1040       H  0.82090541  0.92534980  0.82708898     0.14400
C1041       C  0.36102281  0.09562709  0.75122228     0.29800
C1042       C  0.37645972  0.10931542  0.72741560    -0.36500
C1043       C  0.39778780  0.13106135  0.73548285     0.15800
C1044       C  0.40295694  0.13946588  0.76488172     0.21600
C1045       C  0.38754305  0.12577536  0.78867823    -0.34600
C1046       C  0.36687450  0.10340526  0.78066452     0.15700
O1047       O  0.34156205  0.07335848  0.74898555    -0.26700
C1048       C  0.33535908  0.06653939  0.77736670     0.05500
C1049       C  0.35043345  0.08441406  0.79801927    -0.31500
O1050       O  0.42461833  0.15953735  0.76733848    -0.23400
C1051       C  0.43377236  0.16355797  0.73921342    -0.03400
C1052       C  0.41791614  0.14649889  0.71844142    -0.17800
H1053       H  0.37290393  0.10267452  0.70430804     0.20200
H1054       H  0.39215925  0.13137412  0.81187008     0.18600
H1055       H  0.34976058  0.08312628  0.82227986     0.18500
H1056       H  0.42113160  0.14535498  0.69436973     0.14400
C1057       C  0.36363710  0.90676209  0.75085585     0.29800
C1058       C  0.37873883  0.89319664  0.72668364    -0.36500
C1059       C  0.39948938  0.87063152  0.73418579     0.15800
C1060       C  0.40502532  0.86188931  0.76338645     0.21600
C1061       C  0.38971130  0.87521859  0.78747361    -0.34600
C1062       C  0.36909185  0.89782987  0.78000562     0.15700
O1063       O  0.34428876  0.92928699  0.74930836    -0.26700
C1064       C  0.33736507  0.93473902  0.77788776     0.05500
C1065       C  0.35208664  0.91580823  0.79785698    -0.31500
O1066       O  0.42646264  0.84143741  0.76534287    -0.23400
C1067       C  0.43469912  0.83698386  0.73698971    -0.03400
C1068       C  0.41858910  0.85443744  0.71667264    -0.17800
H1069       H  0.37512136  0.90021998  0.70372381     0.20200
H1070       H  0.39411252  0.86893862  0.81051287     0.18600
H1071       H  0.35092443  0.91580617  0.82213554     0.18500
H1072       H  0.42126984  0.85566535  0.69254668     0.14400
C1073       C  0.16126390  0.91045752  0.77695961     0.29800
C1074       C  0.13887822  0.89240755  0.78943039    -0.36500
C1075       C  0.11394125  0.88698639  0.77134453     0.15800
C1076       C  0.11094722  0.89805528  0.74260144     0.21600
C1077       C  0.13379818  0.91594636  0.72979083    -0.34600
C1078       C  0.15899447  0.92162127  0.74813928     0.15700
O1079       O  0.18436615  0.92134117  0.79166995    -0.26700
C1080       C  0.19774495  0.93934910  0.77206735     0.05500
C1081       C  0.18312496  0.94038555  0.74444517    -0.31500
O1082       O  0.08490599  0.89032878  0.73030839    -0.23400
C1083       C  0.07135782  0.87440698  0.75183569    -0.03400
C1084       C  0.08851352  0.87177019  0.77765663    -0.17800
H1085       H  0.14020842  0.88421908  0.81225470     0.20200
H1086       H  0.13166967  0.92555248  0.70759861     0.18600
H1087       H  0.18768620  0.95525310  0.72576702     0.18500
H1088       H  0.08309125  0.85996783  0.79819959     0.14400
C1089       C  0.77028147  0.63277644  0.91067624     0.29800
C1090       C  0.78084131  0.61298824  0.88842963    -0.36500
C1091       C  0.75890421  0.59625477  0.87322860     0.15800
C1092       C  0.72868315  0.59838706  0.87992806     0.21600
C1093       C  0.71804365  0.61868478  0.90173174    -0.34600
C1094       C  0.73995788  0.63589198  0.91650393     0.15700
O1095       O  0.78698511  0.64950606  0.92850057    -0.26700
C1096       C  0.76712361  0.66402428  0.94554987     0.05500
C1097       C  0.73748051  0.65669369  0.93895481    -0.31500
O1098       O  0.71229939  0.57940344  0.86412757    -0.23400
C1099       C  0.73220147  0.56538750  0.84663702    -0.03400
C1100       C  0.76154050  0.57505966  0.85118874    -0.17800
H1101       H  0.80456100  0.61050452  0.88361043     0.20200
H1102       H  0.69438044  0.62062886  0.90707713     0.18600
H1103       H  0.71724280  0.66454539  0.94999919     0.18500
H1104       H  0.78187019  0.56691249  0.84054669     0.14400
C1105       C  0.77161316  0.63530038  0.11358413     0.29800
C1106       C  0.78195773  0.61650544  0.13663661    -0.36500
C1107       C  0.76003138  0.59921441  0.15122490     0.15800
C1108       C  0.72997811  0.60055237  0.14375646     0.21600
C1109       C  0.71958355  0.61964215  0.12099022    -0.34600
C1110       C  0.74152404  0.63680865  0.10629587     0.15700
O1111       O  0.78843919  0.65189189  0.09576897    -0.26700
C1112       C  0.76889571  0.66429826  0.07691726     0.05500
C1113       C  0.73932473  0.65589500  0.08248921    -0.31500
O1114       O  0.71360068  0.58129835  0.15912180    -0.23400
C1115       C  0.73337637  0.56738948  0.17662031    -0.03400
C1116       C  0.76263208  0.57767294  0.17281082    -0.17800
H1117       H  0.80556916  0.61479680  0.14216961     0.20200
H1118       H  0.69614759  0.62038454  0.11459370     0.18600
H1119       H  0.71935923  0.66205506  0.07011279     0.18500
H1120       H  0.78288270  0.56977715  0.18366526     0.14400
C1121       C  0.91742356  0.74564863  0.85055005     0.29800
C1122       C  0.90879822  0.72249186  0.87038562    -0.36500
C1123       C  0.89644214  0.73185095  0.89804978     0.15800
C1124       C  0.89336932  0.76184392  0.90559959     0.21600
C1125       C  0.90140005  0.78473811  0.88574849    -0.34600
C1126       C  0.91306193  0.77544135  0.85815983     0.15700
O1127       O  0.93154231  0.74262104  0.82447421    -0.26700
C1128       C  0.93554361  0.77092610  0.81533001     0.05500
C1129       C  0.92411542  0.79205475  0.83533586    -0.31500
O1130       O  0.88149861  0.76588522  0.93230313    -0.23400
C1131       C  0.87644832  0.73820637  0.94223984    -0.03400
C1132       C  0.88515985  0.71595829  0.92186113    -0.17800
H1133       H  0.91182812  0.69896805  0.86483980     0.20200
H1134       H  0.89887212  0.80828940  0.89151427     0.18600
H1135       H  0.92600462  0.81634226  0.83439118     0.18500
H1136       H  0.88279133  0.69181875  0.92397335     0.14400
C1137       C  0.76036331  0.89745964  0.90710790     0.29800
C1138       C  0.78280189  0.87657504  0.91361221    -0.36500
C1139       C  0.77318807  0.84967019  0.92652006     0.15800
C1140       C  0.74353708  0.84360386  0.93329061     0.21600
C1141       C  0.72076363  0.86445372  0.92615206    -0.34600
C1142       C  0.73041977  0.89146853  0.91266049     0.15700
O1143       O  0.76475099  0.92378634  0.89454663    -0.26700
C1144       C  0.73732805  0.93502292  0.89152829     0.05500
C1145       C  0.71489079  0.91590840  0.90227242    -0.31500
O1146       O  0.74042913  0.81796398  0.94814555    -0.23400
C1147       C  0.76849521  0.80759398  0.95030483    -0.03400
C1148       C  0.78954634  0.82633176  0.93689742    -0.17800
H1149       H  0.80629511  0.88113609  0.90914435     0.20200
H1150       H  0.69733612  0.86014937  0.93114531     0.18600
H1151       H  0.69079497  0.91918297  0.90169063     0.18500
H1152       H  0.81379848  0.82426239  0.93699207     0.14400
C1153       C  0.13203189  0.73382631  0.41180900     0.29800
C1154       C  0.11167359  0.72328169  0.39030979    -0.36500
C1155       C  0.09614305  0.74536056  0.37422152     0.15800
C1156       C  0.09984084  0.77578822  0.37932861     0.21600
C1157       C  0.12075821  0.78638272  0.40041888    -0.34600
C1158       C  0.13678090  0.76423327  0.41614328     0.15700
O1159       O  0.14812307  0.71704224  0.43002512    -0.26700
C1160       C  0.16389602  0.73687386  0.44582752     0.05500
C1161       C  0.15795733  0.76659648  0.43810036    -0.31500
O1162       O  0.08154220  0.79232886  0.36291490    -0.23400
C1163       C  0.06644670  0.77215130  0.34677678    -0.03400
C1164       C  0.07476403  0.74264762  0.35268272    -0.17800
H1165       H  0.10792256  0.69949254  0.38664698     0.20200
H1166       H  0.12403084  0.81016652  0.40454414     0.18600
H1167       H  0.16713110  0.78687766  0.44795607     0.18500
H1168       H  0.06556349  0.72218237  0.34323221     0.14400
C1169       C  0.91118389  0.74572142  0.37478165     0.29800
C1170       C  0.89806432  0.72171409  0.39023259    -0.36500
C1171       C  0.87530494  0.72940721  0.41053303     0.15800
C1172       C  0.86606740  0.75868396  0.41549994     0.21600
C1173       C  0.87915771  0.78273543  0.39998090    -0.34600
C1174       C  0.90191029  0.77501847  0.37959391     0.15700
O1175       O  0.93313553  0.74372853  0.35501687    -0.26700
C1176       C  0.93788385  0.77211178  0.34707037     0.05500
C1177       C  0.91918330  0.79255306  0.36163500    -0.31500
O1178       O  0.84494396  0.76062611  0.43620173    -0.23400
C1179       C  0.84066189  0.73219504  0.44437433    -0.03400
C1180       C  0.85884394  0.71184907  0.42912357    -0.17800
H1181       H  0.90525783  0.69867584  0.38684853     0.20200
H1182       H  0.87230290  0.80582251  0.40372692     0.18600
H1183       H  0.91866180  0.81681879  0.35948674     0.18500
H1184       H  0.86015864  0.68767381  0.43185506     0.14400
C1185       C  0.92546764  0.73513208  0.16911050     0.29800
C1186       C  0.92163146  0.71683330  0.14351961    -0.36500
C1187       C  0.90148562  0.72763488  0.12170548     0.15800
C1188       C  0.88640767  0.75457934  0.12503974     0.21600
C1189       C  0.88989119  0.77252996  0.15060623    -0.34600
C1190       C  0.90973119  0.76171260  0.17230950     0.15700
O1191       O  0.94572016  0.73153786  0.19049968    -0.26700
C1192       C  0.94231662  0.75585317  0.20775503     0.05500
C1193       C  0.92028012  0.77529458  0.19743032    -0.31500
O1194       O  0.86955584  0.76114583  0.10180629    -0.23400
C1195       C  0.87351914  0.73815101  0.08310548    -0.03400
C1196       C  0.89314736  0.71642320  0.09426338    -0.17800
H1197       H  0.93425671  0.69625294  0.14034318     0.20200
H1198       H  0.87859013  0.79397515  0.15297760     0.18600
H1199       H  0.91516287  0.79773940  0.20546281     0.18500
H1200       H  0.90019695  0.69560752  0.08374696     0.14400
C1201       C  0.90596071  0.22481173  0.38105719     0.29800
C1202       C  0.88651910  0.21431898  0.40366307    -0.36500
C1203       C  0.86868653  0.23624305  0.41788057     0.15800
C1204       C  0.87046748  0.26642976  0.41076933     0.21600
C1205       C  0.88938973  0.27676682  0.38781897    -0.34600
C1206       C  0.90669078  0.25484422  0.37322169     0.15700
O1207       O  0.92520033  0.20854022  0.36531290    -0.26700
C1208       C  0.93790007  0.22839041  0.34683493     0.05500
C1209       C  0.92714433  0.25747577  0.35064021    -0.31500
O1210       O  0.85316790  0.28329938  0.42793431    -0.23400
C1211       C  0.83957921  0.26368021  0.44587940    -0.03400
C1212       C  0.84813072  0.23401004  0.44057169    -0.17800
H1213       H  0.88555632  0.19079210  0.40989538     0.20200
H1214       H  0.89074128  0.30036539  0.38193943     0.18600
H1215       H  0.93405912  0.27771480  0.33902342     0.18500
H1216       H  0.84105429  0.21397371  0.45244090     0.14400
C1217       C  0.10194679  0.22640342  0.37503426     0.29800
C1218       C  0.12347314  0.21550105  0.39522325    -0.36500
C1219       C  0.13872328  0.23730839  0.41201312     0.15800
C1220       C  0.13317422  0.26771439  0.40894164     0.21600
C1221       C  0.11183047  0.27862452  0.38858698    -0.34600
C1222       C  0.09648050  0.25681931  0.37191737     0.15700
O1223       O  0.08421069  0.20992626  0.35815222    -0.26700
C1224       C  0.06719635  0.22998273  0.34400776     0.05500
C1225       C  0.07380919  0.25958281  0.35160237    -0.31500
O1226       O  0.14895589  0.28407113  0.42774601    -0.23400
C1227       C  0.16482629  0.26397564  0.44309768    -0.03400
C1228       C  0.15953416  0.23444826  0.43424411    -0.17800
H1229       H  0.12752549  0.19165879  0.39811740     0.20200
H1230       H  0.10704892  0.30241549  0.38642857     0.18600
H1231       H  0.06299727  0.27997676  0.34390158     0.18500
H1232       H  0.16896405  0.21397405  0.44338937     0.14400
C1233       C  0.91661242  0.22783872  0.16153854     0.29800
C1234       C  0.90554436  0.21594637  0.13472818    -0.36500
C1235       C  0.89699084  0.23687399  0.11308953     0.15800
C1236       C  0.89832877  0.26756684  0.11762253     0.21600
C1237       C  0.90964223  0.27958398  0.14460517    -0.34600
C1238       C  0.91890683  0.25846723  0.16622584     0.15700
O1239       O  0.92825226  0.21201542  0.18341688    -0.26700
C1240       C  0.93849590  0.23247215  0.20258008     0.05500
C1241       C  0.93318811  0.26193298  0.19322499    -0.31500
O1242       O  0.88760975  0.28278023  0.09452300    -0.23400
C1243       C  0.88001870  0.26136281  0.07496774    -0.03400
C1244       C  0.88556560  0.23247973  0.08531400    -0.17800
H1245       H  0.90437518  0.19193200  0.13073806     0.20200
H1246       H  0.91149585  0.30358903  0.14828336     0.18600
H1247       H  0.94077657  0.28262840  0.20354706     0.18500
H1248       H  0.88023450  0.21125900  0.07459181     0.14400
C1249       C  0.87363551  0.27063469  0.60574028     0.29800
C1250       C  0.89555641  0.28144630  0.62563047    -0.36500
C1251       C  0.91091468  0.25955941  0.64222194     0.15800
C1252       C  0.90508715  0.22919337  0.63921959     0.21600
C1253       C  0.88331345  0.21841242  0.61923354    -0.34600
C1254       C  0.86788861  0.24025803  0.60276224     0.15700
O1255       O  0.85666357  0.28706452  0.58806633    -0.26700
C1256       C  0.83980428  0.26699894  0.57363809     0.05500
C1257       C  0.84582213  0.23746210  0.58178090    -0.31500
O1258       O  0.92210009  0.21261297  0.65668075    -0.23400
C1259       C  0.93907464  0.23249441  0.67114490    -0.03400
C1260       C  0.93315929  0.26214597  0.66310690    -0.17800
H1261       H  0.90027380  0.30524401  0.62799130     0.20200
H1262       H  0.87872969  0.19460441  0.61672298     0.18600
H1263       H  0.83567825  0.21702325  0.57327625     0.18500
H1264       H  0.94384761  0.28246588  0.67121685     0.14400
C1265       C  0.14059606  0.23752964  0.60554008     0.29800
C1266       C  0.12581800  0.21407116  0.62068920    -0.36500
C1267       C  0.10431970  0.22284343  0.64215014     0.15800
C1268       C  0.09835617  0.25261569  0.64886015     0.21600
C1269       C  0.11299893  0.27599368  0.63366703    -0.34600
C1270       C  0.13386597  0.26724476  0.61171769     0.15700
O1271       O  0.16031154  0.23465970  0.58344707    -0.26700
C1272       C  0.16577308  0.26292657  0.57517171     0.05500
C1273       C  0.14993373  0.28403697  0.59194568    -0.31500
O1274       O  0.07689132  0.25576308  0.66909662    -0.23400
C1275       C  0.06866384  0.22766120  0.67509910    -0.03400
C1276       C  0.08484079  0.20624106  0.65895973    -0.17800
H1277       H  0.13008493  0.19064657  0.61545617     0.20200
H1278       H  0.10778835  0.29941029  0.63799653     0.18600
H1279       H  0.14995183  0.30828165  0.58952073     0.18500
H1280       H  0.08222493  0.18201563  0.65927651     0.14400
C1281       C  0.83993922  0.07630377  0.74989962     0.29800
C1282       C  0.86568293  0.07923416  0.73155885    -0.36500
C1283       C  0.88746645  0.10003549  0.74141702     0.15800
C1284       C  0.88388916  0.11650071  0.76747806     0.21600
C1285       C  0.85824660  0.11388231  0.78538483    -0.34600
C1286       C  0.83664071  0.09343025  0.77556175     0.15700
O1287       O  0.81840561  0.05593233  0.74729386    -0.26700
C1288       C  0.80112929  0.06065010  0.77137230     0.05500
C1289       C  0.81145515  0.08366549  0.78960066    -0.31500
O1290       O  0.90692524  0.13391766  0.77330760    -0.23400
C1291       C  0.92578367  0.12902741  0.75071258    -0.03400
C1292       C  0.91498040  0.10808717  0.72998627    -0.17800
H1293       H  0.86895484  0.06557993  0.71168330     0.20200
H1294       H  0.85573044  0.12635046  0.80613453     0.18600
H1295       H  0.80324174  0.09013863  0.81158792     0.18500
H1296       H  0.92573037  0.10008576  0.70967094     0.14400
C1297       C  0.15233284  0.08402184  0.78315671     0.29800
C1298       C  0.12678587  0.09721710  0.79587466    -0.36500
C1299       C  0.10403060  0.10512167  0.77589789     0.15800
C1300       C  0.10634367  0.10109634  0.74526953     0.21600
C1301       C  0.13199265  0.08751821  0.73245498    -0.34600
C1302       C  0.15476435  0.07905012  0.75266216     0.15700
O1303       O  0.17516918  0.07321496  0.79824803    -0.26700
C1304       C  0.19273464  0.06089988  0.77744298     0.05500
C1305       C  0.18128614  0.06387554  0.74848461    -0.31500
O1306       O  0.08273446  0.11188983  0.73085606    -0.23400
C1307       C  0.06504655  0.12225596  0.75277466    -0.03400
C1308       C  0.07714210  0.11843588  0.78117305    -0.17800
H1309       H  0.12462124  0.10066825  0.81983843     0.20200
H1310       H  0.13396432  0.08367463  0.70854067     0.18600
H1311       H  0.19012796  0.05453214  0.72782548     0.18500
H1312       H  0.06817601  0.12605382  0.80248758     0.14400
C1313       C  0.90644333  0.24445949  0.84264186     0.29800
C1314       C  0.88502960  0.23297323  0.86240600    -0.36500
C1315       C  0.88124199  0.24880558  0.88916144     0.15800
C1316       C  0.89689693  0.27465665  0.89620519     0.21600
C1317       C  0.91820189  0.28656926  0.87602675    -0.34600
C1318       C  0.92234387  0.27036746  0.84908799     0.15700
O1319       O  0.91666015  0.23028232  0.81886548    -0.26700
C1320       C  0.93911882  0.24735874  0.80931309     0.05500
C1321       C  0.94373664  0.27274811  0.82712548    -0.31500
O1322       O  0.89050344  0.28459274  0.92356740    -0.23400
C1323       C  0.87082586  0.26443183  0.93384553    -0.03400
C1324       C  0.86437410  0.24187460  0.91332100    -0.17800
H1325       H  0.87341461  0.21202074  0.85802192     0.20200
H1326       H  0.93162449  0.30610032  0.88155531     0.18600
H1327       H  0.96235557  0.28838746  0.82621957     0.18500
H1328       H  0.84957715  0.22274982  0.91600253     0.14400
C1329       C  0.26910145  0.60135705  0.14514563     0.29800
C1330       C  0.27888890  0.62479952  0.12648815    -0.36500
C1331       C  0.25743606  0.63658452  0.10675831     0.15800
C1332       C  0.22841517  0.62577072  0.10518080     0.21600
C1333       C  0.21838821  0.60278157  0.12438251    -0.34600
C1334       C  0.23975593  0.59130165  0.14447603     0.15700
O1335       O  0.28597025  0.58580416  0.16379311    -0.26700
C1336       C  0.26706481  0.56598515  0.17574422     0.05500
C1337       C  0.23792640  0.56847398  0.16483713    -0.31500
O1338       O  0.21255643  0.63919705  0.08409841    -0.23400
C1339       C  0.23156760  0.65912945  0.07232597    -0.03400
C1340       C  0.25974993  0.65863918  0.08567819    -0.17800
H1341       H  0.30183009  0.63287658  0.12690296     0.20200
H1342       H  0.19568244  0.59411396  0.12337861     0.18600
H1343       H  0.21874704  0.55436587  0.16989098     0.18500
H1344       H  0.27920996  0.67221681  0.08026582     0.04800
C1345       C  0.24505864  0.59537997  0.86790725     0.29800
C1346       C  0.22095101  0.61035975  0.88173934    -0.36500
C1347       C  0.22853002  0.63173506  0.90371085     0.15800
C1348       C  0.25780179  0.63812625  0.91165539     0.21600
C1349       C  0.28195953  0.62336583  0.89757284    -0.34600
C1350       C  0.27436499  0.60192478  0.87561434     0.15700
O1351       O  0.24310036  0.57357613  0.84774406    -0.26700
C1352       C  0.27157689  0.56612656  0.84236665     0.05500
C1353       C  0.29193020  0.58310239  0.85904036    -0.31500
O1354       O  0.25953041  0.65774455  0.93400220    -0.23400
C1355       C  0.23093340  0.66398930  0.94037903    -0.03400
C1356       C  0.21079131  0.64853386  0.92210218    -0.17800
H1357       H  0.19782331  0.60518877  0.87627879     0.20200
H1358       H  0.30505349  0.62773928  0.90380889     0.18600
H1359       H  0.31619032  0.58126081  0.85942777     0.18500
H1360       H  0.18647387  0.64883468  0.92300648     0.14400
C1361       C  0.11142636  0.75996220  0.89858413     0.29800
C1362       C  0.10484600  0.78107185  0.87636570    -0.36500
C1363       C  0.08784887  0.77064058  0.85222253     0.15800
C1364       C  0.07792615  0.74132159  0.84972352     0.21600
C1365       C  0.08492165  0.71988935  0.87199166    -0.34600
C1366       C  0.10190029  0.73047647  0.89653192     0.15700
O1367       O  0.12622788  0.76556663  0.92340976    -0.26700
C1368       C  0.12634240  0.73947536  0.93789181     0.05500
C1369       C  0.11158671  0.71662012  0.92225796    -0.31500
O1370       O  0.05962925  0.73763316  0.82657169    -0.23400
C1371       C  0.05819634  0.76497667  0.81432209    -0.03400
C1372       C  0.07532551  0.78619171  0.82937197    -0.17800
H1373       H  0.11167577  0.80436445  0.87829054     0.20200
H1374       H  0.07678512  0.69698105  0.87084015     0.18600
H1375       H  0.10869596  0.69334321  0.92874398     0.18500
H1376       H  0.07633203  0.81019728  0.82545013     0.14400
C1377       C  0.08609854  0.73654044  0.17256978     0.29800
C1378       C  0.09043590  0.71454810  0.15012532    -0.36500
C1379       C  0.10637904  0.72391769  0.12443139     0.15800
C1380       C  0.11703696  0.75291696  0.12128649     0.21600
C1381       C  0.11374942  0.77435010  0.14399150    -0.34600
C1382       C  0.09805552  0.76503094  0.16947361     0.15700
O1383       O  0.06800905  0.73453748  0.19611173    -0.26700
C1384       C  0.06875755  0.76205314  0.20809554     0.05500
C1385       C  0.08756418  0.78163238  0.19270953    -0.31500
O1386       O  0.12924340  0.75782628  0.09491980    -0.23400
C1387       C  0.12691774  0.73162769  0.08079690    -0.03400
C1388       C  0.11321328  0.70939521  0.09811869    -0.17800
H1389       H  0.08069801  0.69228478  0.15184246     0.20200
H1390       H  0.12158619  0.79726644  0.14130287     0.18600
H1391       H  0.09026872  0.80562448  0.19611215     0.18500
H1392       H  0.10860856  0.68625432  0.09205005     0.14400
C1393       C  0.23054314  0.84566932  0.92981934     0.29800
C1394       C  0.21776090  0.87047958  0.91569703    -0.36500
C1395       C  0.23768695  0.89257602  0.90600623     0.15800
C1396       C  0.26840679  0.89075986  0.90953732     0.21600
C1397       C  0.28142405  0.86549668  0.92377252    -0.34600
C1398       C  0.26120037  0.84302013  0.93368138     0.15700
O1399       O  0.21533423  0.82380214  0.94238151    -0.26700
C1400       C  0.23615991  0.80622705  0.95433639     0.05500
C1401       C  0.26533005  0.81685734  0.94960892    -0.31500
O1402       O  0.28243984  0.91438245  0.89773313    -0.23400
C1403       C  0.26004698  0.93115754  0.88681129    -0.03400
C1404       C  0.23194623  0.91855540  0.89157854    -0.17800
H1405       H  0.19369314  0.87264586  0.91288134     0.20200
H1406       H  0.30544705  0.86359977  0.92708755     0.18600
H1407       H  0.28610950  0.80797879  0.95855962     0.18500
H1408       H  0.21026547  0.92691770  0.88440465     0.14400
C1409       C  0.23499601  0.37045708  0.91185611     0.29800
C1410       C  0.22435188  0.38885083  0.88865436    -0.36500
C1411       C  0.24613704  0.40541376  0.87305982     0.15800
C1412       C  0.27627715  0.40447801  0.88023741     0.21600
C1413       C  0.28701520  0.38561267  0.90309270    -0.34600
C1414       C  0.26526698  0.36853479  0.91828951     0.15700
O1415       O  0.21845488  0.35353134  0.92963971    -0.26700
C1416       C  0.23840124  0.34008303  0.94727047     0.05500
C1417       C  0.26791277  0.34838986  0.94120182    -0.31500
O1418       O  0.29243211  0.42317024  0.86384630    -0.23400
C1419       C  0.27242454  0.43581846  0.84563461    -0.03400
C1420       C  0.24331878  0.42543691  0.85014585    -0.17800
H1421       H  0.20068688  0.39031402  0.88328744     0.20200
H1422       H  0.31062191  0.38451234  0.90877833     0.18600
H1423       H  0.28816607  0.34120126  0.95252262     0.18500
H1424       H  0.22295552  0.43249206  0.83893444     0.14400
C1425       C  0.23346588  0.36662914  0.11274334     0.29800
C1426       C  0.22278209  0.38688793  0.13444355    -0.36500
C1427       C  0.24466193  0.40362780  0.14958543     0.15800
C1428       C  0.27499227  0.40048244  0.14383413     0.21600
C1429       C  0.28572952  0.37989604  0.12241326    -0.34600
C1430       C  0.26380526  0.36324736  0.10714728     0.15700
O1431       O  0.21679920  0.35022355  0.09470927    -0.26700
C1432       C  0.23662825  0.33600851  0.07738939     0.05500
C1433       C  0.26629454  0.34309392  0.08414611    -0.31500
O1434       O  0.29136403  0.41957595  0.15936243    -0.23400
C1435       C  0.27129968  0.43512856  0.17525978    -0.03400
C1436       C  0.24185314  0.42610609  0.17024947    -0.17800
H1437       H  0.19900507  0.39003347  0.13856098     0.20200
H1438       H  0.30943990  0.37768591  0.11738426     0.18600
H1439       H  0.28654911  0.33543783  0.07299895     0.18500
H1440       H  0.22141728  0.43537868  0.17970770     0.14400
C1441       C  0.09206251  0.23528475  0.17032346     0.29800
C1442       C  0.11016580  0.22207469  0.14833915    -0.36500
C1443       C  0.11735030  0.24014915  0.12379338     0.15800
C1444       C  0.10785947  0.26954869  0.12088280     0.21600
C1445       C  0.08984526  0.28305683  0.14330987    -0.34600
C1446       C  0.08234728  0.26470929  0.16807718     0.15700
O1447       O  0.07976597  0.22084632  0.19287692    -0.26700
C1448       C  0.06212642  0.24109647  0.20590155     0.05500
C1449       C  0.06285467  0.26901914  0.19162615    -0.31500
O1450       O  0.11712928  0.28180036  0.09532739    -0.23400
C1451       C  0.13249559  0.25965990  0.08197535    -0.03400
C1452       C  0.13320511  0.23338540  0.09877042    -0.17800
H1453       H  0.11712171  0.19876544  0.14967295     0.20200
H1454       H  0.08147510  0.30582192  0.14114496     0.18600
H1455       H  0.04869939  0.28837526  0.19591886     0.18500
H1456       H  0.14420814  0.21230245  0.09341187     0.14400
C1457       C  0.11065442  0.24188513  0.90491001     0.29800
C1458       C  0.10178781  0.21905117  0.88529268    -0.36500
C1459       C  0.08780972  0.22836880  0.85890130     0.15800
C1460       C  0.08238815  0.25815200  0.85210129     0.21600
C1461       C  0.09188771  0.28127754  0.87167613    -0.34600
C1462       C  0.10632364  0.27189534  0.89824043     0.15700
O1463       O  0.12381508  0.23772136  0.93088695    -0.26700
C1464       C  0.12845760  0.26532402  0.94130511     0.05500
C1465       C  0.11823716  0.28770327  0.92188479    -0.31500
O1466       O  0.06644194  0.26116100  0.82716147    -0.23400
C1467       C  0.06210315  0.23286090  0.81800637    -0.03400
C1468       C  0.07519261  0.21174754  0.83685034    -0.17800
H1469       H  0.10513328  0.19550259  0.89051692     0.20200
H1470       H  0.08780352  0.30478798  0.86685414     0.18600
H1471       H  0.11961040  0.31186409  0.92467002     0.18500
H1472       H  0.07377950  0.18744488  0.83559213     0.14400
C1473       C  0.26166139  0.16436264  0.92349950     0.29800
C1474       C  0.28388138  0.14272984  0.91671561    -0.36500
C1475       C  0.27372567  0.11630557  0.90242222     0.15800
C1476       C  0.24383832  0.11175780  0.89556598     0.21600
C1477       C  0.22206860  0.13362200  0.90126664    -0.34600
C1478       C  0.23214597  0.15981799  0.91523592     0.15700
O1479       O  0.26484646  0.18860850  0.94053496    -0.26700
C1480       C  0.23701362  0.19960583  0.94268629     0.05500
C1481       C  0.21603482  0.18281477  0.92689379    -0.31500
O1482       O  0.23863187  0.08515513  0.88391539    -0.23400
C1483       C  0.26546573  0.07222169  0.88278189    -0.03400
C1484       C  0.28840527  0.09059880  0.89370353    -0.17800
H1485       H  0.30708526  0.14565377  0.92333471     0.20200
H1486       H  0.19855541  0.12990483  0.89626864     0.18600
H1487       H  0.19181932  0.18531708  0.92682920     0.18500
H1488       H  0.31219986  0.08573681  0.89498037     0.14400
C1489       C  0.64272905  0.90360213  0.26450516     0.29800
C1490       C  0.63018269  0.88809169  0.28893145    -0.36500
C1491       C  0.60857530  0.86618269  0.28187339     0.15800
C1492       C  0.60000713  0.85974466  0.25279851     0.21600
C1493       C  0.61284296  0.87495815  0.22838768    -0.34600
C1494       C  0.63423791  0.89702168  0.23544805     0.15700
O1495       O  0.66209524  0.92611117  0.26591816    -0.26700
C1496       C  0.66601638  0.93399264  0.23735889     0.05500
C1497       C  0.64928908  0.91660129  0.21748733    -0.31500
O1498       O  0.57787130  0.83999851  0.25149044    -0.23400
C1499       C  0.57214534  0.83374898  0.28011637    -0.03400
C1500       C  0.59071549  0.84921989  0.29996892    -0.17800
H1501       H  0.63611094  0.89341403  0.31188784     0.20200
H1502       H  0.60587517  0.87062449  0.20551431     0.18600
H1503       H  0.64792571  0.91858905  0.19330699     0.18500
H1504       H  0.59013676  0.84903023  0.32426425     0.14400
C1505       C  0.59759348  0.12984702  0.27715598     0.29800
C1506       C  0.61861882  0.10896367  0.28771693    -0.36500
C1507       C  0.63550158  0.09403080  0.26573732     0.15800
C1508       C  0.63146475  0.09881866  0.23539875     0.21600
C1509       C  0.61084456  0.12016882  0.22482752    -0.34600
C1510       C  0.59439211  0.13556886  0.24687255     0.15700
O1511       O  0.57893369  0.14572204  0.29377117    -0.26700
C1512       C  0.56399428  0.16220511  0.27393858     0.05500
C1513       C  0.57273344  0.15705306  0.24441278    -0.31500
O1514       O  0.64838529  0.08103815  0.21880668    -0.23400
C1515       C  0.66385118  0.06518754  0.23881105    -0.03400
C1516       C  0.65697241  0.07240813  0.26834380    -0.17800
H1517       H  0.62140599  0.10445983  0.31143490     0.20200
H1518       H  0.60762958  0.12424354  0.20109016     0.18600
H1519       H  0.56382822  0.16707137  0.22416148     0.18500
H1520       H  0.66563809  0.06230194  0.28865831     0.14400
C1521       C  0.76253553  0.10718725  0.11461021     0.29800
C1522       C  0.78500916  0.12810007  0.10820058    -0.36500
C1523       C  0.77547509  0.15470455  0.09469027     0.15800
C1524       C  0.74591958  0.16037032  0.08729018     0.21600
C1525       C  0.72318082  0.13945871  0.09420669    -0.34600
C1526       C  0.73269459  0.11281791  0.10833290     0.15700
O1527       O  0.76675115  0.08107653  0.12756349    -0.26700
C1528       C  0.73931294  0.06969282  0.13009842     0.05500
C1529       C  0.71703505  0.08843448  0.11866422    -0.31500
O1530       O  0.74284030  0.18576862  0.07214575    -0.23400
C1531       C  0.77078793  0.19641465  0.07039174    -0.03400
C1532       C  0.79181167  0.17809930  0.08433314    -0.17800
H1533       H  0.80841494  0.12379514  0.11319709     0.20200
H1534       H  0.69985114  0.14347728  0.08862636     0.18600
H1535       H  0.69296802  0.08486910  0.11854556     0.18500
H1536       H  0.81602743  0.18047720  0.08462481     0.14400
C1537       C  0.76739663  0.83918737  0.10015328     0.29800
C1538       C  0.78059870  0.86178433  0.11724155    -0.36500
C1539       C  0.76267686  0.88675222  0.12301101     0.15800
C1540       C  0.73345288  0.88956557  0.11310672     0.21600
C1541       C  0.71996604  0.86657491  0.09605943    -0.34600
C1542       C  0.73815103  0.84132430  0.09003080     0.15700
O1543       O  0.78173102  0.81595001  0.08912949    -0.26700
C1544       C  0.76153501  0.80242997  0.07203310     0.05500
C1545       C  0.73382815  0.81700729  0.07171037    -0.31500
O1546       O  0.72134491  0.91558972  0.12109450    -0.23400
C1547       C  0.74345930  0.92921896  0.13595106    -0.03400
C1548       C  0.76951582  0.91226539  0.13772529    -0.17800
H1549       H  0.80378436  0.86053479  0.12448345     0.20200
H1550       H  0.69736572  0.86862295  0.08735570     0.18600
H1551       H  0.71471460  0.81238064  0.05744976     0.18500
H1552       H  0.79046055  0.91780835  0.14877416     0.14400
C1553       C  0.84202645  0.91263142  0.23586330     0.29800
C1554       C  0.86438080  0.89517216  0.22224075    -0.36500
C1555       C  0.88822651  0.88656711  0.24065703     0.15800
C1556       C  0.89013800  0.89445949  0.27055657     0.21600
C1557       C  0.86736230  0.91163623  0.28439514    -0.34600
C1558       C  0.84327402  0.92027663  0.26588139     0.15700
O1559       O  0.81966485  0.92569802  0.22181975    -0.26700
C1560       C  0.80580028  0.94151140  0.24303996     0.05500
C1561       C  0.81934481  0.93898489  0.27105542    -0.31500
O1562       O  0.91517604  0.88457479  0.28313026    -0.23400
C1563       C  0.92926365  0.87025409  0.26084760    -0.03400
C1564       C  0.91342001  0.87074184  0.23402871    -0.17800
H1565       H  0.86374862  0.88958373  0.19858910     0.20200
H1566       H  0.86873486  0.91847657  0.30767303     0.18600
H1567       H  0.81413790  0.95138478  0.29133938     0.18500
H1568       H  0.91960311  0.86076928  0.21269331     0.14400
C1569       C  0.84244796  0.08235947  0.26346198     0.29800
C1570       C  0.86370395  0.08894915  0.28594570    -0.36500
C1571       C  0.89048124  0.10276832  0.27612894     0.15800
C1572       C  0.89583519  0.10918351  0.24628284     0.21600
C1573       C  0.87452508  0.10329461  0.22414791    -0.34600
C1574       C  0.84787295  0.08999779  0.23394032     0.15700
O1575       O  0.81712851  0.06699060  0.26665622    -0.26700
C1576       C  0.80626688  0.06537499  0.23881263     0.05500
C1577       C  0.82439985  0.07965802  0.21778911    -0.31500
O1578       O  0.92221775  0.12149115  0.24164561    -0.23400
C1579       C  0.93415972  0.12344587  0.26880889    -0.03400
C1580       C  0.91541601  0.11233288  0.29135474    -0.17800
H1581       H  0.85994891  0.08312472  0.30923479     0.20200
H1582       H  0.87868092  0.10829163  0.20072401     0.18600
H1583       H  0.82199643  0.07997302  0.19360552     0.18500
H1584       H  0.91935292  0.11192492  0.31531297     0.14400
C1585       C  0.40627968  0.86935115  0.27954428     0.29800
C1586       C  0.38541490  0.89058339  0.28998244    -0.36500
C1587       C  0.36798204  0.90470049  0.26799907     0.15800
C1588       C  0.37129513  0.89877439  0.23774300     0.21600
C1589       C  0.39163255  0.87691402  0.22734651    -0.34600
C1590       C  0.40871998  0.86239084  0.24942269     0.15700
O1591       O  0.42568840  0.85450673  0.29611678    -0.26700
C1592       C  0.44042005  0.83742221  0.27648129     0.05500
C1593       C  0.43068940  0.84109998  0.24708656    -0.31500
O1594       O  0.35429420  0.91627989  0.22101245    -0.23400
C1595       C  0.33946891  0.93310124  0.24087293    -0.03400
C1596       C  0.34685498  0.92674050  0.27044633    -0.17800
H1597       H  0.38332640  0.89611447  0.31356159     0.20200
H1598       H  0.39436092  0.87201545  0.20369162     0.18600
H1599       H  0.43922925  0.83039102  0.22695980     0.18500
H1600       H  0.33887799  0.93776841  0.29063049     0.14400
C1601       C  0.36606022  0.09127592  0.26574961     0.29800
C1602       C  0.38216898  0.10404363  0.28954465    -0.36500
C1603       C  0.40199158  0.12730323  0.28184534     0.15800
C1604       C  0.40585840  0.13733599  0.25276728     0.21600
C1605       C  0.38965034  0.12467623  0.22899529    -0.34600
C1606       C  0.36980665  0.10144368  0.23670087     0.15700
O1607       O  0.34716265  0.06846460  0.26756760    -0.26700
C1608       C  0.33882333  0.06401221  0.23927971     0.05500
C1609       C  0.35208439  0.08394075  0.21918595    -0.31500
O1610       O  0.42628644  0.15873434  0.25064195    -0.23400
C1611       C  0.43540721  0.16252112  0.27877817    -0.03400
C1612       C  0.42107346  0.14360349  0.29910491    -0.17800
H1613       H  0.37977772  0.09609985  0.31237819     0.20200
H1614       H  0.39264659  0.13207274  0.20604591     0.18600
H1615       H  0.34960239  0.08482258  0.19503565     0.18500
H1616       H  0.42469414  0.14173742  0.32304752     0.14400
C1617       C  0.23943832  0.89160499  0.11888204     0.29800
C1618       C  0.21624027  0.87212594  0.11066794    -0.36500
C1619       C  0.22507342  0.84419453  0.09922580     0.15800
C1620       C  0.25473239  0.83590855  0.09549589     0.21600
C1621       C  0.27812447  0.85523702  0.10460089    -0.34600
C1622       C  0.26923299  0.88329146  0.11645560     0.15700
O1623       O  0.23591191  0.91890884  0.12965194    -0.26700
C1624       C  0.26373593  0.92844565  0.13455107     0.05500
C1625       C  0.28553701  0.90718303  0.12699229    -0.31500
O1626       O  0.25751799  0.81008584  0.08080016    -0.23400
C1627       C  0.22919768  0.80171320  0.07567954    -0.03400
C1628       C  0.20825016  0.82196975  0.08709131    -0.17800
H1629       H  0.19284532  0.87860936  0.11241894     0.20200
H1630       H  0.30153746  0.84923158  0.10181554     0.18600
H1631       H  0.30967070  0.90892465  0.12936139     0.18500
H1632       H  0.18408497  0.82176879  0.08428163     0.14400
C1633       C  0.23585854  0.15658700  0.09302030     0.29800
C1634       C  0.22241872  0.13318342  0.10888764    -0.36500
C1635       C  0.24127157  0.10958834  0.11705720     0.15800
C1636       C  0.27153407  0.10865969  0.11035107     0.21600
C1637       C  0.28520171  0.13244552  0.09434915    -0.34600
C1638       C  0.26612140  0.15645536  0.08610164     0.15700
O1639       O  0.22143262  0.17936259  0.08121166    -0.26700
C1640       C  0.24250120  0.19470775  0.06677666     0.05500
C1641       C  0.27094405  0.18169132  0.06902210    -0.31500
O1642       O  0.28458521  0.08396546  0.12089807    -0.23400
C1643       C  0.26205400  0.06930236  0.13430482    -0.03400
C1644       C  0.23479909  0.08430229  0.13239278    -0.17800
H1645       H  0.19861880  0.13309688  0.11401327     0.20200
H1646       H  0.30880599  0.13211705  0.08847314     0.18600
H1647       H  0.29136918  0.18826668  0.05755620     0.18500
H1648       H  0.21327129  0.07780748  0.14175353     0.14400
C1649       C  0.16139533  0.91654996  0.26367705     0.29800
C1650       C  0.13932121  0.91033272  0.28546493    -0.36500
C1651       C  0.11301292  0.89639061  0.27490737     0.15800
C1652       C  0.10883946  0.88925869  0.24503329     0.21600
C1653       C  0.13107620  0.89460475  0.22357879    -0.34600
C1654       C  0.15725067  0.90825769  0.23410421     0.15700
O1655       O  0.18605935  0.93274054  0.26746259    -0.26700
C1656       C  0.19777483  0.93436566  0.23995453     0.05500
C1657       C  0.18096905  0.91907469  0.21856702    -0.31500
O1658       O  0.08256260  0.87697973  0.23976495    -0.23400
C1659       C  0.06962708  0.87586980  0.26658647    -0.03400
C1660       C  0.08750107  0.88748018  0.28945042    -0.17800
H1661       H  0.14200768  0.91681147  0.30873126     0.20200
H1662       H  0.12784602  0.88923472  0.20009741     0.18600
H1663       H  0.18415184  0.91866764  0.19445925     0.18500
H1664       H  0.08268655  0.88846388  0.31325902     0.14400
C1665       C  0.16440467  0.08885049  0.24002090     0.29800
C1666       C  0.14184356  0.10572701  0.22630475    -0.36500
C1667       C  0.11710429  0.11282179  0.24425290     0.15800
C1668       C  0.11455410  0.10428399  0.27390636     0.21600
C1669       C  0.13751485  0.08757052  0.28786948    -0.34600
C1670       C  0.16248172  0.08026339  0.26973521     0.15700
O1671       O  0.18728077  0.07658359  0.22599095    -0.26700
C1672       C  0.20075726  0.06016128  0.24683320     0.05500
C1673       C  0.18655105  0.06170996  0.27470379    -0.31500
O1674       O  0.08889585  0.11332128  0.28610076    -0.23400
C1675       C  0.07510798  0.12764388  0.26373422    -0.03400
C1676       C  0.09168178  0.12789312  0.23729094    -0.17800
H1677       H  0.14295020  0.11185416  0.20282260     0.20200
H1678       H  0.13564063  0.08002868  0.31088709     0.18600
H1679       H  0.19115951  0.04841485  0.29450157     0.18500
H1680       H  0.08599303  0.13822504  0.21606057     0.14400
loop_ 
_geom_bond_atom_site_label_1 
_geom_bond_atom_site_label_2 
_geom_bond_distance 
_geom_bond_site_symmetry_2 
_ccdc_geom_bond_type 
O1           C16   1.260       .  A
O1           Al9   1.913   1_545  S
C2           O12   1.256       .  A
C2            O3   1.257       .  A
C2         C1624   1.466       .  S
O3           Al5   1.903       .  S
O4            C6   1.256       .  A
O4           Al5   1.861       .  S
Al5          O13   1.856   1_565  S
Al5          O15   1.890   1_565  S
Al5          O14   1.772       .  S
C6           O19   1.269       .  A
C6         C1656   1.469       .  S
O7           C17   1.260       .  A
O7           Al9   1.897       .  S
O8           C21   1.257       .  A
O8          Al18   1.870   1_545  S
Al9          O22   1.933   1_565  S
Al9          O19   1.954       .  S
Al9          O14   1.796       .  S
O10          C17   1.261       .  A
O10         Al18   1.908       .  S
O11          C20   1.267       .  A
O11         Al18   1.953   1_545  S
O12         Al18   1.903       .  S
O13          C20   1.255       .  A
O14         Al18   1.788       .  S
O15          C16   1.256       .  A
C16        C1672   1.461       .  S
C17        C1595   1.465       .  S
C20        C1643   1.473       .  S
C21          O22   1.267       .  A
C21        C1608   1.465       .  S
O23          C38   1.260       .  A
O23         Al31   1.916   1_565  S
C24          O34   1.255       .  A
C24          O25   1.253       .  A
C24        C1528   1.461       .  S
O25         Al27   1.891       .  S
O26          C28   1.259       .  A
O26         Al27   1.868       .  S
Al27         O35   1.848   1_545  S
Al27         O37   1.891   1_545  S
Al27         O36   1.775       .  S
C28          O41   1.271       .  A
C28        C1576   1.471       .  S
O29          C39   1.262       .  A
O29         Al31   1.897       .  S
O30          C43   1.257       .  A
O30         Al40   1.879   1_565  S
Al31         O44   1.932   1_545  S
Al31         O41   1.958       .  S
Al31         O36   1.793       .  S
O32          C39   1.260       .  A
O32         Al40   1.895       .  S
O33          C42   1.266       .  A
O33         Al40   1.938   1_565  S
O34         Al40   1.904       .  S
O35          C42   1.256       .  A
O36         Al40   1.790       .  S
O37          C38   1.255       .  A
C38        C1560   1.462       .  S
C39        C1515   1.460       .  S
C42        C1547   1.460       .  S
C43          O44   1.265       .  A
C43        C1496   1.473       .  S
O45          C60   1.260       .  A
O45         Al53   1.917       .  S
C46          O56   1.256       .  A
C46          O47   1.255       .  A
C46        C1464   1.470       .  S
O47         Al49   1.898   1_556  S
O48          C50   1.260       .  A
O48         Al49   1.872   1_556  S
Al49         O57   1.869       .  S
Al49         O59   1.886       .  S
Al49         O58   1.776       .  S
C50          O63   1.268       .  A
C50        C1480   1.470       .  S
O51          C61   1.260       .  A
O51         Al53   1.896   1_556  S
O52          C65   1.257       .  A
O52         Al62   1.879       .  S
Al53         O66   1.923       .  S
Al53         O63   1.947   1_554  S
Al53         O58   1.799       .  S
O54          C61   1.261       .  A
O54         Al62   1.904   1_556  S
O55          C64   1.268       .  A
O55         Al62   1.951       .  S
O56         Al62   1.914   1_556  S
O57          C64   1.258       .  A
O58         Al62   1.790       .  S
O59          C60   1.255       .  A
C60        C1640   1.462       .  S
C61        C1416   1.465       .  S
C64        C1451   1.476       .  S
C65          O66   1.265       .  A
C65        C1432   1.466       .  S
O67          C82   1.262       .  A
O67         Al75   1.922   1_556  S
C68          O78   1.255       .  A
C68          O69   1.257       .  A
C68        C1387   1.465       .  S
O69         Al71   1.902       .  S
O70          C72   1.258       .  A
O70         Al71   1.873       .  S
Al71         O79   1.870   1_554  S
Al71         O81   1.888   1_554  S
Al71         O80   1.777       .  S
C72          O85   1.270       .  A
C72        C1627   1.475       .  S
O73          C83   1.261       .  A
O73         Al75   1.900       .  S
O74          C87   1.258       .  A
O74         Al84   1.876   1_556  S
Al75         O88   1.949   1_554  S
Al75         O85   1.957       .  S
Al75         O80   1.795       .  S
O76          C83   1.261       .  A
O76         Al84   1.910       .  S
O77          C86   1.268       .  A
O77         Al84   1.947   1_556  S
O78         Al84   1.904       .  S
O79          C86   1.256       .  A
O80         Al84   1.793       .  S
O81          C82   1.257       .  A
C82        C1400   1.467       .  S
C83        C1339   1.471       .  S
C86        C1368   1.471       .  S
C87          O88   1.269       .  A
C87        C1355   1.478       .  S
O89         C104   1.258       .  A
O89         Al97   1.903   1_655  S
C90         O100   1.256       .  A
C90          O91   1.262       .  A
C90        C1307   1.468       .  S
O91         Al93   1.912   1_455  S
O92          C94   1.257       .  A
O92         Al93   1.869   1_455  S
Al93        O101   1.873       .  S
Al93        O103   1.896       .  S
Al93        O102   1.774   1_655  S
C94         O107   1.268       .  A
C94        C1467   1.475       .  S
O95         C105   1.260       .  A
O95         Al97   1.897       .  S
O96         C109   1.258       .  A
O96        Al106   1.874       .  S
Al97        O110   1.937   1_455  S
Al97        O107   1.953       .  S
Al97        O102   1.798       .  S
O98         C105   1.261       .  A
O98        Al106   1.906   1_455  S
O99         C108   1.264       .  A
O99        Al106   1.944       .  S
O100       Al106   1.893   1_455  S
O101        C108   1.255       .  A
O102       Al106   1.792   1_455  S
O103        C104   1.258       .  A
C104       C1320   1.458       .  S
C105       C1275   1.466       .  S
C108       C1291   1.470       .  S
C109        O110   1.268       .  A
C109       C1259   1.466       .  S
O111        C126   1.261       .  A
O111       Al119   1.915   1_455  S
C112        O122   1.255       .  A
C112        O113   1.259       .  A
C112       C1579   1.464       .  S
O113       Al115   1.904   1_655  S
O114        C116   1.256       .  A
O114       Al115   1.869   1_655  S
Al115       O123   1.865       .  S
Al115       O125   1.895       .  S
Al115       O124   1.775       .  S
C116        O129   1.268       .  A
C116       C1240   1.467       .  S
O117        C127   1.262       .  A
O117       Al119   1.898       .  S
O118        C131   1.256       .  A
O118       Al128   1.870       .  S
Al119       O132   1.932   1_655  S
Al119       O129   1.950       .  S
Al119       O124   1.795   1_655  S
O120        C127   1.261       .  A
O120       Al128   1.910   1_655  S
O121        C130   1.265       .  A
O121       Al128   1.943       .  S
O122       Al128   1.896   1_655  S
O123        C130   1.255       .  A
O124       Al128   1.792       .  S
O125        C126   1.258       .  A
C126       C1448   1.464       .  S
C127       C1208   1.467       .  S
C130       C1675   1.471       .  S
C131        O132   1.266       .  A
C131       C1224   1.463       .  S
O133        C148   1.261       .  A
O133       Al141   1.912   1_655  S
C134        O144   1.252       .  A
C134        O135   1.256       .  A
C134       C1659   1.459       .  S
O135       Al137   1.902       .  S
O136        C138   1.259       .  A
O136       Al137   1.875       .  S
Al137       O145   1.873   1_455  S
Al137       O147   1.902   1_455  S
Al137       O146   1.776       .  S
C138        O151   1.267       .  A
C138       C1384   1.469       .  S
O139        C149   1.261       .  A
O139       Al141   1.889       .  S
O140        C153   1.254       .  A
O140       Al150   1.865   1_655  S
Al141       O154   1.921   1_455  S
Al141       O151   1.948       .  S
Al141       O146   1.791       .  S
O142        C149   1.264       .  A
O142       Al150   1.917       .  S
O143        C152   1.268       .  A
O143       Al150   1.942   1_655  S
O144       Al150   1.884       .  S
O145        C152   1.258       .  A
O146       Al150   1.787       .  S
O147        C148   1.258       .  A
C148       C1192   1.462       .  S
C149       C1163   1.465       .  S
C152       C1563   1.472       .  S
C153        O154   1.263       .  A
C153       C1176   1.459       .  S
O155        C170   1.257       .  A
O155       Al163   1.902       .  S
C156        O166   1.257       .  A
C156        O157   1.258       .  A
C156       C1131   1.468       .  S
O157       Al159   1.906   1_556  S
O158        C160   1.259       .  A
O158       Al159   1.870   1_556  S
Al159       O167   1.872       .  S
Al159       O169   1.884       .  S
Al159       O168   1.775       .  S
C160        O173   1.268       .  A
C160       C1147   1.471       .  S
O161        C171   1.260       .  A
O161       Al163   1.896   1_556  S
O162        C175   1.257       .  A
O162       Al172   1.881       .  S
Al163       O176   1.929       .  S
Al163       O173   1.949   1_554  S
Al163       O168   1.799       .  S
O164        C171   1.262       .  A
O164       Al172   1.912   1_556  S
O165        C174   1.267       .  A
O165       Al172   1.950       .  S
O166       Al172   1.903   1_556  S
O167        C174   1.255       .  A
O168       Al172   1.789       .  S
O169        C170   1.256       .  A
C170       C1544   1.452       .  S
C171       C1096   1.468       .  S
C174       C1195   1.472       .  S
C175        O176   1.266       .  A
C175       C1112   1.467       .  S
O177        C192   1.261       .  A
O177       Al185   1.906   1_565  S
C178        O188   1.255       .  A
C178        O179   1.258       .  A
C178       C1483   1.466       .  S
O179       Al181   1.901       .  S
O180        C182   1.254       .  A
O180       Al181   1.869       .  S
Al181       O189   1.857   1_545  S
Al181       O191   1.899   1_545  S
Al181       O190   1.775       .  S
C182        O195   1.266       .  A
C182       C1304   1.469       .  S
O183        C193   1.260       .  A
O183       Al185   1.894       .  S
O184        C197   1.256       .  A
O184       Al194   1.872       .  S
Al185       O198   1.936   1_545  S
Al185       O195   1.949       .  S
Al185       O190   1.802       .  S
O186        C193   1.263       .  A
O186       Al194   1.906   1_545  S
O187        C196   1.265       .  A
O187       Al194   1.947       .  S
O188       Al194   1.899   1_545  S
O189        C196   1.254       .  A
O190       Al194   1.795   1_545  S
O191        C192   1.260       .  A
C192       C1080   1.462       .  S
C193       C1048   1.462       .  S
C196       C1403   1.475       .  S
C197        O198   1.265       .  A
C197       C1064   1.470       .  S
O199        C214   1.260       .  A
O199       Al207   1.914   1_455  S
C200        O210   1.256       .  A
C200        O201   1.256       .  A
C200       C1032   1.469       .  S
O201       Al203   1.901       .  S
O202        C204   1.258       .  A
O202       Al203   1.866       .  S
Al203       O211   1.856   1_655  S
Al203       O213   1.895   1_655  S
Al203       O212   1.773       .  S
C204        O217   1.269       .  A
C204       C1128   1.471       .  S
O205        C215   1.261       .  A
O205       Al207   1.894       .  S
O206        C219   1.259       .  A
O206       Al216   1.883       .  S
Al207       O220   1.925   1_655  S
Al207       O217   1.955       .  S
Al207       O212   1.794       .  S
O208        C215   1.260       .  A
O208       Al216   1.899   1_655  S
O209        C218   1.268       .  A
O209       Al216   1.953       .  S
O210       Al216   1.913   1_655  S
O211        C218   1.256       .  A
O212       Al216   1.790   1_655  S
O213        C214   1.258       .  A
C214       C1371   1.466       .  S
C215       C1000   1.458       .  S
C218       C1083   1.473       .  S
C219        O220   1.266       .  A
C219       C1016   1.467       .  S
O221        C236   1.258       .  A
O221       Al229   1.908   1_556  S
C222        O232   1.253       .  A
C222        O223   1.258       .  A
C222       C1243   1.465       .  S
O223       Al225   1.906       .  S
O224        C226   1.259       .  A
O224       Al225   1.865       .  S
Al225       O233   1.857   1_554  S
Al225       O235   1.895   1_554  S
Al225       O234   1.772       .  S
C226        O239   1.270       .  A
C226       C1531   1.466       .  S
O227        C237   1.260       .  A
O227       Al229   1.889       .  S
O228        C241   1.255       .  A
O228       Al238   1.861   1_556  S
Al229       O242   1.928   1_554  S
Al229       O239   1.952       .  S
Al229       O234   1.792       .  S
O230        C237   1.260       .  A
O230       Al238   1.902       .  S
O231        C240   1.268       .  A
O231       Al238   1.949   1_556  S
O232       Al238   1.893       .  S
O233        C240   1.257       .  A
O234       Al238   1.787       .  S
O235        C236   1.257       .  A
C236        C987   1.459       .  S
C237        C952   1.458       .  S
C240       C1323   1.468       .  S
C241        O242   1.265       .  A
C241        C968   1.461       .  S
O243        C258   1.257       .  A
O243       Al251   1.905       .  S
C244        O254   1.253       .  A
C244        O245   1.258       .  A
C244       C1144   1.465       .  S
O245       Al247   1.909   1_565  S
O246        C248   1.259       .  A
O246       Al247   1.868   1_565  S
Al247       O255   1.863       .  S
Al247       O257   1.901       .  S
Al247       O256   1.775       .  S
C248        O261   1.270       .  A
C248       C1035   1.470       .  S
O249        C259   1.258       .  A
O249       Al251   1.886   1_565  S
O250        C263   1.255       .  A
O250       Al260   1.866       .  S
Al251       O264   1.931       .  S
Al251       O261   1.951   1_545  S
Al251       O256   1.794       .  S
O252        C259   1.261       .  A
O252       Al260   1.905   1_565  S
O253        C262   1.267       .  A
O253       Al260   1.943       .  S
O254       Al260   1.892   1_565  S
O255        C262   1.256       .  A
O256       Al260   1.791       .  S
O257        C258   1.257       .  A
C258       C1288   1.462       .  S
C259        C920   1.460       .  S
C262        C984   1.464       .  S
C263        O264   1.265       .  A
C263        C939   1.466       .  S
O265        C280   1.258       .  A
O265       Al273   1.903       .  S
C266        O276   1.254       .  A
C266        O267   1.257       .  A
C266        C856   1.467       .  S
O267       Al269   1.906       .  S
O268        C270   1.257       .  A
O268       Al269   1.864       .  S
Al269       O277   1.868       .  S
Al269       O279   1.897       .  S
Al269       O278   1.775       .  S
C270        O283   1.268       .  A
C270        C888   1.463       .  S
O271        C281   1.259       .  A
O271       Al273   1.887       .  S
O272        C285   1.256       .  A
O272       Al282   1.871       .  S
Al273       O286   1.923       .  S
Al273       O283   1.949       .  S
Al273       O278   1.797       .  S
O274        C281   1.262       .  A
O274       Al282   1.905       .  S
O275        C284   1.268       .  A
O275       Al282   1.946       .  S
O276       Al282   1.898       .  S
O277        C284   1.258       .  A
O278       Al282   1.787       .  S
O279        C280   1.258       .  A
C280        C904   1.457       .  S
C281       C1512   1.460       .  S
C284        C872   1.472       .  S
C285        O286   1.264       .  A
C285       C1611   1.464       .  S
O287        C302   1.257       .  A
O287       Al295   1.906       .  S
C288        O298   1.255       .  A
C288        O289   1.257       .  A
C288        C811   1.464       .  S
O289       Al291   1.905       .  S
O290        C292   1.259       .  A
O290       Al291   1.868       .  S
Al291       O299   1.863       .  S
Al291       O301   1.894       .  S
Al291       O300   1.779       .  S
C292        O305   1.270       .  A
C292        C827   1.464       .  S
O293        C303   1.259       .  A
O293       Al295   1.893       .  S
O294        C307   1.255       .  A
O294       Al304   1.871       .  S
Al295       O308   1.926       .  S
Al295       O305   1.947       .  S
Al295       O300   1.795       .  S
O296        C303   1.261       .  A
O296       Al304   1.907       .  S
O297        C306   1.267       .  A
O297       Al304   1.943       .  S
O298       Al304   1.897       .  S
O299        C306   1.256       .  A
O300       Al304   1.790       .  S
O301        C302   1.255       .  A
C302        C843   1.461       .  S
C303       C1336   1.465       .  S
C306        C907   1.464       .  S
C307        O308   1.265       .  A
C307       C1435   1.465       .  S
O309        C324   1.260       .  A
O309       Al317   1.918       .  S
C310        O320   1.255       .  A
C310        O311   1.258       .  A
C310        C779   1.468       .  S
O311       Al313   1.903       .  S
O312        C314   1.259       .  A
O312       Al313   1.863       .  S
Al313       O321   1.860       .  S
Al313       O323   1.890       .  S
Al313       O322   1.773       .  S
C314        O327   1.271       .  A
C314        C795   1.468       .  S
O315        C325   1.261       .  A
O315       Al317   1.905       .  S
O316        C329   1.256       .  A
O316       Al326   1.868       .  S
Al317       O330   1.932       .  S
Al317       O327   1.954       .  S
Al317       O322   1.793       .  S
O318        C325   1.262       .  A
O318       Al326   1.904       .  S
O319        C328   1.270       .  A
O319       Al326   1.955       .  S
O320       Al326   1.905       .  S
O321        C328   1.255       .  A
O322       Al326   1.786       .  S
O323        C324   1.255       .  A
C324        C875   1.463       .  S
C325       C1272   1.469       .  S
C328        C840   1.467       .  S
C329        O330   1.267       .  A
C329       C1227   1.463       .  S
O331        C346   1.259       .  A
O331       Al339   1.913       .  S
C332        O342   1.256       .  A
C332        O333   1.258       .  A
C332        C824   1.465       .  S
O333       Al335   1.900       .  S
O334        C336   1.258       .  A
O334       Al335   1.865       .  S
Al335       O343   1.862       .  S
Al335       O345   1.887       .  S
Al335       O344   1.774       .  S
C336        O349   1.270       .  A
C336        C744   1.472       .  S
O337        C347   1.260       .  A
O337       Al339   1.898       .  S
O338        C351   1.259       .  A
O338       Al348   1.881       .  S
Al339       O352   1.929       .  S
Al339       O349   1.957       .  S
Al339       O344   1.793       .  S
O340        C347   1.260       .  A
O340       Al348   1.903       .  S
O341        C350   1.267       .  A
O341       Al348   1.945       .  S
O342       Al348   1.903       .  S
O343        C350   1.255       .  A
O344       Al348   1.790       .  S
O345        C346   1.255       .  A
C346        C760   1.461       .  S
C347       C1160   1.465       .  S
C350        C728   1.463       .  S
C351        O352   1.268       .  A
C351       C1019   1.467       .  S
O353        C368   1.260       .  A
O353       Al361   1.910       .  S
C354        O364   1.253       .  A
C354        O355   1.256       .  A
C354        C699   1.457       .  S
O355       Al357   1.902       .  S
O356        C358   1.259       .  A
O356       Al357   1.873       .  S
Al357       O365   1.872       .  S
Al357       O367   1.892       .  S
Al357       O366   1.778       .  S
C358        O371   1.272       .  A
C358        C776   1.469       .  S
O359        C369   1.261       .  A
O359       Al361   1.895       .  S
O360        C373   1.256       .  A
O360       Al370   1.873       .  S
Al361       O374   1.946       .  S
Al361       O371   1.960       .  S
Al361       O366   1.789       .  S
O362        C369   1.262       .  A
O362       Al370   1.911       .  S
O363        C372   1.268       .  A
O363       Al370   1.944       .  S
O364       Al370   1.888       .  S
O365        C372   1.259       .  A
O366       Al370   1.785       .  S
O367        C368   1.256       .  A
C368        C731   1.458       .  S
C369       C1419   1.467       .  S
C372        C712   1.470       .  S
C373        O374   1.268       .  A
C373       C1352   1.476       .  S
O375        C390   1.261       .  A
O375       Al383   1.919       .  S
C376        O386   1.256       .  A
C376        O377   1.255       .  A
C376        C747   1.466       .  S
O377       Al379   1.899       .  S
O378        C380   1.260       .  A
O378       Al379   1.872       .  S
Al379       O387   1.859       .  S
Al379       O389   1.885       .  S
Al379       O388   1.771       .  S
C380        O393   1.271       .  A
C380        C808   1.469       .  S
O381        C391   1.260       .  A
O381       Al383   1.893       .  S
O382        C395   1.257       .  A
O382       Al392   1.877       .  S
Al383       O396   1.936       .  S
Al383       O393   1.954       .  S
Al383       O388   1.793       .  S
O384        C391   1.262       .  A
O384       Al392   1.905       .  S
O385        C394   1.268       .  A
O385       Al392   1.949       .  S
O386       Al392   1.910       .  S
O387        C394   1.257       .  A
O388       Al392   1.787       .  S
O389        C390   1.256       .  A
C390        C680   1.461       .  S
C391       C1592   1.463       .  S
C394        C667   1.470       .  S
C395        O396   1.267       .  A
C395       C1499   1.471       .  S
O397        C412   1.257       .  A
O397       Al405   1.896       .  S
C398        O408   1.254       .  A
C398        O399   1.258       .  A
C398        C891   1.466       .  S
O399       Al401   1.896       .  S
O400        C402   1.257       .  A
O400       Al401   1.870       .  S
Al401       O409   1.866       .  S
Al401       O411   1.895       .  S
Al401       O410   1.776       .  S
C402        O415   1.266       .  A
C402        C635   1.470       .  S
O403        C413   1.259       .  A
O403       Al405   1.887       .  S
O404        C417   1.256       .  A
O404       Al414   1.876       .  S
Al405       O418   1.926       .  S
Al405       O415   1.946       .  S
Al405       O410   1.798       .  S
O406        C413   1.260       .  A
O406       Al414   1.899       .  S
O407        C416   1.264       .  A
O407       Al414   1.937       .  S
O408       Al414   1.901       .  S
O409        C416   1.257       .  A
O410       Al414   1.791       .  S
O411        C412   1.259       .  A
C412        C648   1.455       .  S
C413        C955   1.457       .  S
C416        C683   1.469       .  S
C417        O418   1.265       .  A
C417       C1115   1.466       .  S
O419        C434   1.258       .  A
O419       Al427   1.904       .  S
C420        O430   1.255       .  A
C420        O421   1.259       .  A
C420        C603   1.469       .  S
O421       Al423   1.911       .  S
O422        C424   1.256       .  A
O422       Al423   1.864       .  S
Al423       O431   1.861       .  S
Al423       O433   1.900       .  S
Al423       O432   1.773       .  S
C424        O437   1.266       .  A
C424        C616   1.459       .  S
O425        C435   1.259       .  A
O425       Al427   1.889       .  S
O426        C439   1.256       .  A
O426       Al436   1.867       .  S
Al427       O440   1.920       .  S
Al427       O437   1.938       .  S
Al427       O432   1.798       .  S
O428        C435   1.259       .  A
O428       Al436   1.893       .  S
O429        C438   1.265       .  A
O429       Al436   1.935       .  S
O430       Al436   1.898       .  S
O431        C438   1.255       .  A
O432       Al436   1.790       .  S
O433        C434   1.258       .  A
C434        C664   1.460       .  S
C435       C1003   1.457       .  S
C438        C651   1.461       .  S
C439        O440   1.264       .  A
C439       C1179   1.459       .  S
O441        C456   1.263       .  A
O441       Al449   1.923       .  S
C442        O452   1.255       .  A
C442        O443   1.260       .  A
C442        C568   1.465       .  S
O443       Al445   1.911       .  S
O444        C446   1.257       .  A
O444       Al445   1.864       .  S
Al445       O453   1.867       .  S
Al445       O455   1.898       .  S
Al445       O454   1.771       .  S
C446        O459   1.269       .  A
C446        C600   1.474       .  S
O447        C457   1.263       .  A
O447       Al449   1.907       .  S
O448        C461   1.257       .  A
O448       Al458   1.866       .  S
Al449       O462   1.936       .  S
Al449       O459   1.959       .  S
Al449       O454   1.794       .  S
O450        C457   1.262       .  A
O450       Al458   1.910       .  S
O451        C460   1.267       .  A
O451       Al458   1.951       .  S
O452       Al458   1.894       .  S
O453        C460   1.254       .  A
O454       Al458   1.789       .  S
O455        C456   1.259       .  A
C456        C587   1.471       .  S
C457       C1099   1.470       .  S
C460        C555   1.469       .  S
C461        O462   1.267       .  A
C461        C971   1.463       .  S
O463        C478   1.260       .  A
O463       Al471   1.913       .  S
C464        O474   1.253       .  A
C464        O465   1.256       .  A
C464        C619   1.462       .  S
O465       Al467   1.897       .  S
O466        C468   1.260       .  A
O466       Al467   1.871       .  S
Al467       O475   1.862       .  S
Al467       O477   1.891       .  S
Al467       O476   1.774       .  S
C468        O481   1.271       .  A
C468        C571   1.472       .  S
O469        C479   1.260       .  A
O469       Al471   1.897       .  S
O470        C483   1.255       .  A
O470       Al480   1.865       .  S
Al471       O484   1.938       .  S
Al471       O481   1.959       .  S
Al471       O476   1.791       .  S
O472        C479   1.263       .  A
O472       Al480   1.907       .  S
O473        C482   1.270       .  A
O473       Al480   1.953       .  S
O474       Al480   1.899       .  S
O475        C482   1.258       .  A
O476       Al480   1.787       .  S
O477        C478   1.255       .  A
C478        C715   1.459       .  S
C479        C923   1.467       .  S
C482        C763   1.473       .  S
C483        O484   1.267       .  A
C483       C1067   1.469       .  S
O485        C500   1.259       .  A
O485       Al493   1.908       .  S
C486        O496   1.254       .  A
C486        O487   1.257       .  A
C486        C792   1.464       .  S
O487       Al489   1.904       .  S
O488        C490   1.257       .  A
O488       Al489   1.861       .  S
Al489       O497   1.861       .  S
Al489       O499   1.903       .  S
Al489       O498   1.771       .  S
C490        O503   1.269       .  A
C490        C696   1.463       .  S
O491        C501   1.259       .  A
O491       Al493   1.890       .  S
O492        C505   1.256       .  A
O492       Al502   1.865       .  S
Al493       O506   1.929       .  S
Al493       O503   1.949       .  S
Al493       O498   1.793       .  S
O494        C501   1.263       .  A
O494       Al502   1.908       .  S
O495        C504   1.269       .  A
O495       Al502   1.949       .  S
O496       Al502   1.898       .  S
O497        C504   1.258       .  A
O498       Al502   1.784       .  S
O499        C500   1.258       .  A
C500        C552   1.461       .  S
C501       C1051   1.463       .  S
C504        C539   1.470       .  S
C505        O506   1.265       .  A
C505        C936   1.464       .  S
O507        C522   1.260       .  A
O507       Al515   1.910       .  S
C508        O518   1.252       .  A
C508        O509   1.258       .  A
C508        C632   1.463       .  S
O509       Al511   1.907       .  S
O510        C512   1.256       .  A
O510       Al511   1.861       .  S
Al511       O519   1.870       .  S
Al511       O521   1.896       .  S
Al511       O520   1.774       .  S
C512        O525   1.270       .  A
C512        C859   1.473       .  S
O513        C523   1.261       .  A
O513       Al515   1.895       .  S
O514        C527   1.254       .  A
O514       Al524   1.863       .  S
Al515       O528   1.938       .  S
Al515       O525   1.963       .  S
Al515       O520   1.798       .  S
O516        C523   1.264       .  A
O516       Al524   1.915       .  S
O517        C526   1.269       .  A
O517       Al524   1.956       .  S
O518       Al524   1.890       .  S
O519        C526   1.255       .  A
O520       Al524   1.788       .  S
O521        C522   1.258       .  A
C522        C536   1.461       .  S
C523       C1211   1.466       .  S
C526        C584   1.476       .  S
C527        O528   1.268       .  A
C527       C1256   1.464       .  S
C529        C534   1.381       .  A
C529        C530   1.395       .  A
C529        O535   1.311       .  A
C530        C531   1.394       .  A
C530        H541   1.083       .  S
C531        C540   1.350       .  A
C531        C532   1.380       .  A
C532        C533   1.411       .  A
C532        O538   1.326       .  A
C533        C534   1.411       .  A
C533        H542   1.082       .  S
C534        C537   1.371       .  A
O535        C536   1.326       .  A
C536        C537   1.394       .  A
C537        H543   1.082       .  S
O538        C539   1.335       .  A
C539        C540   1.388       .  A
C540        H544   1.083       .  S
C545        C550   1.380       .  A
C545        C546   1.409       .  A
C545        O551   1.322       .  A
C546        C547   1.407       .  A
C546        H557   1.082       .  S
C547        C556   1.370       .  A
C547        C548   1.380       .  A
C548        C549   1.399       .  A
C548        O554   1.313       .  A
C549        C550   1.397       .  A
C549        H558   1.082       .  S
C550        C553   1.357       .  A
O551        C552   1.332       .  A
C552        C553   1.387       .  A
C553        H559   1.083       .  S
O554        C555   1.329       .  A
C555        C556   1.393       .  A
C556        H560   1.082       .  S
C561        C566   1.381       .  A
C561        C562   1.393       .  A
C561        O567   1.311       .  A
C562        C563   1.393       .  A
C562        H573   1.083       .  S
C563        C572   1.349       .  A
C563        C564   1.380       .  A
C564        C565   1.412       .  A
C564        O570   1.326       .  A
C565        C566   1.411       .  A
C565        H574   1.083       .  S
C566        C569   1.371       .  A
O567        C568   1.325       .  A
C568        C569   1.397       .  A
C569        H575   1.083       .  S
O570        C571   1.335       .  A
C571        C572   1.388       .  A
C572        H576   1.083       .  S
C577        C582   1.380       .  A
C577        C578   1.400       .  A
C577        O583   1.315       .  A
C578        C579   1.399       .  A
C578        H589   1.083       .  S
C579        C588   1.356       .  A
C579        C580   1.380       .  A
C580        C581   1.412       .  A
C580        O586   1.327       .  A
C581        C582   1.411       .  A
C581        H590   1.082       .  S
C582        C585   1.373       .  A
O583        C584   1.330       .  A
C584        C585   1.396       .  A
C585        H591   1.082       .  S
O586        C587   1.335       .  A
C587        C588   1.389       .  A
C588        H592   1.083       .  S
C593        C598   1.380       .  A
C593        C594   1.411       .  A
C593        O599   1.328       .  A
C594        C595   1.412       .  A
C594        H605   1.083       .  S
C595        C604   1.370       .  A
C595        C596   1.381       .  A
C596        C597   1.395       .  A
C596        O602   1.313       .  A
C597        C598   1.395       .  A
C597        H606   1.083       .  S
C598        C601   1.349       .  A
O599        C600   1.335       .  A
C600        C601   1.389       .  A
C601        H607   1.083       .  S
O602        C603   1.326       .  A
C603        C604   1.396       .  A
C604        H608   1.083       .  S
C609        C614   1.381       .  A
C609        C610   1.394       .  A
C609        O615   1.308       .  A
C610        C611   1.392       .  A
C610        H621   1.083       .  S
C611        C620   1.350       .  A
C611        C612   1.380       .  A
C612        C613   1.408       .  A
C612        O618   1.323       .  A
C613        C614   1.407       .  A
C613        H622   1.083       .  S
C614        C617   1.368       .  A
O615        C616   1.325       .  A
C616        C617   1.393       .  A
C617        H623   1.083       .  S
O618        C619   1.333       .  A
C619        C620   1.386       .  A
C620        H624   1.083       .  S
C625        C630   1.381       .  A
C625        C626   1.395       .  A
C625        O631   1.312       .  A
C626        C627   1.395       .  A
C626        H637   1.083       .  S
C627        C636   1.351       .  A
C627        C628   1.381       .  A
C628        C629   1.410       .  A
C628        O634   1.325       .  A
C629        C630   1.409       .  A
C629        H638   1.082       .  S
C630        C633   1.369       .  A
O631        C632   1.326       .  A
C632        C633   1.394       .  A
C633        H639   1.082       .  S
O634        C635   1.334       .  A
C635        C636   1.388       .  A
C636        H640   1.083       .  S
C641        C646   1.381       .  A
C641        C642   1.409       .  A
C641        O647   1.321       .  A
C642        C643   1.407       .  A
C642        H653   1.082       .  S
C643        C652   1.369       .  A
C643        C644   1.381       .  A
C644        C645   1.394       .  A
C644        O650   1.309       .  A
C645        C646   1.392       .  A
C645        H654   1.082       .  S
C646        C649   1.351       .  A
O647        C648   1.332       .  A
C648        C649   1.384       .  A
C649        H655   1.083       .  S
O650        C651   1.325       .  A
C651        C652   1.394       .  A
C652        H656   1.082       .  S
C657        C662   1.382       .  A
C657        C658   1.394       .  A
C657        O663   1.312       .  A
C658        C659   1.394       .  A
C658        H669   1.083       .  S
C659        C668   1.349       .  A
C659        C660   1.380       .  A
C660        C661   1.410       .  A
C660        O666   1.326       .  A
C661        C662   1.411       .  A
C661        H670   1.083       .  S
C662        C665   1.369       .  A
O663        C664   1.325       .  A
C664        C665   1.394       .  A
C665        H671   1.083       .  S
O666        C667   1.334       .  A
C667        C668   1.387       .  A
C668        H672   1.083       .  S
C673        C678   1.381       .  A
C673        C674   1.393       .  A
C673        O679   1.308       .  A
C674        C675   1.391       .  A
C674        H685   1.083       .  S
C675        C684   1.350       .  A
C675        C676   1.379       .  A
C676        C677   1.413       .  A
C676        O682   1.326       .  A
C677        C678   1.412       .  A
C677        H686   1.082       .  S
C678        C681   1.374       .  A
O679        C680   1.325       .  A
C680        C681   1.396       .  A
C681        H687   1.082       .  S
O682        C683   1.336       .  A
C683        C684   1.386       .  A
C684        H688   1.083       .  S
C689        C694   1.380       .  A
C689        C690   1.406       .  A
C689        O695   1.323       .  A
C690        C691   1.406       .  A
C690        H701   1.082       .  S
C691        C700   1.364       .  A
C691        C692   1.381       .  A
C692        C693   1.393       .  A
C692        O698   1.311       .  A
C693        C694   1.393       .  A
C693        H702   1.083       .  S
C694        C697   1.346       .  A
O695        C696   1.333       .  A
C696        C697   1.388       .  A
C697        H703   1.083       .  S
O698        C699   1.325       .  A
C699        C700   1.393       .  A
C700        H704   1.082       .  S
C705        C710   1.381       .  A
C705        C706   1.407       .  A
C705        O711   1.323       .  A
C706        C707   1.406       .  A
C706        H717   1.089       .  S
C707        C716   1.367       .  A
C707        C708   1.381       .  A
C708        C709   1.397       .  A
C708        O714   1.313       .  A
C709        C710   1.396       .  A
C709        H718   1.087       .  S
C710        C713   1.355       .  A
O711        C712   1.333       .  A
C712        C713   1.389       .  A
C713        H719   1.083       .  S
O714        C715   1.327       .  A
C715        C716   1.391       .  A
C716        H720   1.087       .  S
C721        C726   1.381       .  A
C721        C722   1.393       .  A
C721        O727   1.309       .  A
C722        C723   1.391       .  A
C722        H733   1.088       .  S
C723        C732   1.350       .  A
C723        C724   1.381       .  A
C724        C725   1.409       .  A
C724        O730   1.324       .  A
C725        C726   1.408       .  A
C725        H734   1.092       .  S
C726        C729   1.370       .  A
O727        C728   1.326       .  A
C728        C729   1.394       .  A
C729        H735   1.088       .  S
O730        C731   1.334       .  A
C731        C732   1.384       .  A
C732        H736   1.082       .  S
C737        C742   1.380       .  A
C737        C738   1.411       .  A
C737        O743   1.326       .  A
C738        C739   1.411       .  A
C738        H749   1.082       .  S
C739        C748   1.371       .  A
C739        C740   1.381       .  A
C740        C741   1.395       .  A
C740        O746   1.311       .  A
C741        C742   1.395       .  A
C741        H750   1.083       .  S
C742        C745   1.350       .  A
O743        C744   1.335       .  A
C744        C745   1.389       .  A
C745        H751   1.083       .  S
O746        C747   1.327       .  A
C747        C748   1.395       .  A
C748        H752   1.082       .  S
C753        C758   1.381       .  A
C753        C754   1.396       .  A
C753        O759   1.312       .  A
C754        C755   1.395       .  A
C754        H765   1.083       .  S
C755        C764   1.351       .  A
C755        C756   1.380       .  A
C756        C757   1.410       .  A
C756        O762   1.327       .  A
C757        C758   1.411       .  A
C757        H766   1.083       .  S
C758        C761   1.370       .  A
O759        C760   1.326       .  A
C760        C761   1.394       .  A
C761        H767   1.083       .  S
O762        C763   1.335       .  A
C763        C764   1.389       .  A
C764        H768   1.083       .  S
C769        C774   1.381       .  A
C769        C770   1.397       .  A
C769        O775   1.312       .  A
C770        C771   1.395       .  A
C770        H781   1.083       .  S
C771        C780   1.352       .  A
C771        C772   1.380       .  A
C772        C773   1.410       .  A
C772        O778   1.325       .  A
C773        C774   1.410       .  A
C773        H782   1.082       .  S
C774        C777   1.371       .  A
O775        C776   1.328       .  A
C776        C777   1.395       .  A
C777        H783   1.082       .  S
O778        C779   1.334       .  A
C779        C780   1.387       .  A
C780        H784   1.083       .  S
C785        C790   1.381       .  A
C785        C786   1.394       .  A
C785        O791   1.312       .  A
C786        C787   1.394       .  A
C786        H797   1.083       .  S
C787        C796   1.349       .  A
C787        C788   1.380       .  A
C788        C789   1.409       .  A
C788        O794   1.325       .  A
C789        C790   1.409       .  A
C789        H798   1.082       .  S
C790        C793   1.368       .  A
O791        C792   1.326       .  A
C792        C793   1.395       .  A
C793        H799   1.082       .  S
O794        C795   1.334       .  A
C795        C796   1.389       .  A
C796        H800   1.083       .  S
C801        C806   1.380       .  A
C801        C802   1.409       .  A
C801        O807   1.324       .  A
C802        C803   1.408       .  A
C802        H813   1.082       .  S
C803        C812   1.368       .  A
C803        C804   1.381       .  A
C804        C805   1.396       .  A
C804        O810   1.312       .  A
C805        C806   1.396       .  A
C805        H814   1.083       .  S
C806        C809   1.351       .  A
O807        C808   1.334       .  A
C808        C809   1.389       .  A
C809        H815   1.083       .  S
O810        C811   1.327       .  A
C811        C812   1.394       .  A
C812        H816   1.082       .  S
C817        C822   1.380       .  A
C817        C818   1.407       .  A
C817        O823   1.322       .  A
C818        C819   1.407       .  A
C818        H829   1.083       .  S
C819        C828   1.368       .  A
C819        C820   1.381       .  A
C820        C821   1.396       .  A
C820        O826   1.311       .  A
C821        C822   1.395       .  A
C821        H830   1.083       .  S
C822        C825   1.353       .  A
O823        C824   1.332       .  A
C824        C825   1.388       .  A
C825        H831   1.083       .  S
O826        C827   1.327       .  A
C827        C828   1.393       .  A
C828        H832   1.083       .  S
C833        C838   1.380       .  A
C833        C834   1.397       .  A
C833        O839   1.310       .  A
C834        C835   1.395       .  A
C834        H845   1.083       .  S
C835        C844   1.355       .  A
C835        C836   1.381       .  A
C836        C837   1.410       .  A
C836        O842   1.322       .  A
C837        C838   1.408       .  A
C837        H846   1.083       .  S
C838        C841   1.372       .  A
O839        C840   1.328       .  A
C840        C841   1.394       .  A
C841        H847   1.083       .  S
O842        C843   1.333       .  A
C843        C844   1.386       .  A
C844        H848   1.083       .  S
C849        C854   1.381       .  A
C849        C850   1.394       .  A
C849        O855   1.313       .  A
C850        C851   1.395       .  A
C850        H861   1.083       .  S
C851        C860   1.348       .  A
C851        C852   1.380       .  A
C852        C853   1.411       .  A
C852        O858   1.328       .  A
C853        C854   1.411       .  A
C853        H862   1.082       .  S
C854        C857   1.369       .  A
O855        C856   1.326       .  A
C856        C857   1.396       .  A
C857        H863   1.082       .  S
O858        C859   1.335       .  A
C859        C860   1.389       .  A
C860        H864   1.083       .  S
C865        C870   1.380       .  A
C865        C866   1.409       .  A
C865        O871   1.325       .  A
C866        C867   1.409       .  A
C866        H877   1.082       .  S
C867        C876   1.370       .  A
C867        C868   1.381       .  A
C868        C869   1.398       .  A
C868        O874   1.313       .  A
C869        C870   1.397       .  A
C869        H878   1.083       .  S
C870        C873   1.354       .  A
O871        C872   1.334       .  A
C872        C873   1.389       .  A
C873        H879   1.082       .  S
O874        C875   1.328       .  A
C875        C876   1.393       .  A
C876        H880   1.082       .  S
C881        C886   1.381       .  A
C881        C882   1.392       .  A
C881        O887   1.307       .  A
C882        C883   1.390       .  A
C882        H893   1.083       .  S
C883        C892   1.349       .  A
C883        C884   1.380       .  A
C884        C885   1.411       .  A
C884        O890   1.325       .  A
C885        C886   1.411       .  A
C885        H894   1.082       .  S
C886        C889   1.373       .  A
O887        C888   1.325       .  A
C888        C889   1.396       .  A
C889        H895   1.082       .  S
O890        C891   1.335       .  A
C891        C892   1.385       .  A
C892        H896   1.083       .  S
C897        C902   1.381       .  A
C897        C898   1.409       .  A
C897        O903   1.322       .  A
C898        C899   1.407       .  A
C898        H909   1.082       .  S
C899        C908   1.370       .  A
C899        C900   1.381       .  A
C900        C901   1.396       .  A
C900        O906   1.310       .  A
C901        C902   1.394       .  A
C901        H910   1.083       .  S
C902        C905   1.353       .  A
O903        C904   1.332       .  A
C904        C905   1.385       .  A
C905        H911   1.083       .  S
O906        C907   1.327       .  A
C907        C908   1.393       .  A
C908        H912   1.082       .  S
C913        C918   1.382       .  A
C913        C914   1.399       .  A
C913        O919   1.316       .  A
C914        C915   1.399       .  A
C914        H925   1.082       .  S
C915        C924   1.357       .  A
C915        C916   1.381       .  A
C916        C917   1.405       .  A
C916        O922   1.321       .  A
C917        C918   1.404       .  A
C917        H926   1.082       .  S
C918        C921   1.362       .  A
O919        C920   1.327       .  A
C920        C921   1.390       .  A
C921        H927   1.083       .  S
O922        C923   1.331       .  A
C923        C924   1.389       .  A
C924        H928   1.083       .  S
C929        C934   1.381       .  A
C929        C930   1.401       .  A
C929        O935   1.320       .  A
C930        C931   1.402       .  A
C930        H941   1.083       .  S
C931        C940   1.356       .  A
C931        C932   1.381       .  A
C932        C933   1.400       .  A
C932        O938   1.320       .  A
C933        C934   1.401       .  A
C933        H942   1.083       .  S
C934        C937   1.355       .  A
O935        C936   1.329       .  A
C936        C937   1.390       .  A
C937        H943   1.083       .  S
O938        C939   1.329       .  A
C939        C940   1.391       .  A
C940        H944   1.083       .  S
C945        C950   1.381       .  A
C945        C946   1.402       .  A
C945        O951   1.316       .  A
C946        C947   1.401       .  A
C946        H957   1.083       .  S
C947        C956   1.361       .  A
C947        C948   1.381       .  A
C948        C949   1.400       .  A
C948        O954   1.314       .  A
C949        C950   1.398       .  A
C949        H958   1.083       .  S
C950        C953   1.359       .  A
O951        C952   1.329       .  A
C952        C953   1.388       .  A
C953        H959   1.083       .  S
O954        C955   1.328       .  A
C955        C956   1.389       .  A
C956        H960   1.083       .  S
C961        C966   1.382       .  A
C961        C962   1.399       .  A
C961        O967   1.318       .  A
C962        C963   1.400       .  A
C962        H973   1.083       .  S
C963        C972   1.353       .  A
C963        C964   1.382       .  A
C964        C965   1.400       .  A
C964        O970   1.319       .  A
C965        C966   1.401       .  A
C965        H974   1.083       .  S
C966        C969   1.354       .  A
O967        C968   1.328       .  A
C968        C969   1.391       .  A
C969        H975   1.083       .  S
O970        C971   1.329       .  A
C971        C972   1.390       .  A
C972        H976   1.083       .  S
C977        C982   1.380       .  A
C977        C978   1.395       .  A
C977        O983   1.310       .  A
C978        C979   1.394       .  A
C978        H989   1.082       .  S
C979        C988   1.352       .  A
C979        C980   1.380       .  A
C980        C981   1.409       .  A
C980        O986   1.323       .  A
C981        C982   1.408       .  A
C981        H990   1.082       .  S
C982        C985   1.370       .  A
O983        C984   1.327       .  A
C984        C985   1.394       .  A
C985        H991   1.082       .  S
O986        C987   1.333       .  A
C987        C988   1.385       .  A
C988        H992   1.082       .  S
C993        C998   1.381       .  A
C993        C994   1.402       .  A
C993        O999   1.315       .  A
C994        C995   1.400       .  A
C994       H1005   1.082       .  S
C995       C1004   1.361       .  A
C995        C996   1.381       .  A
C996        C997   1.400       .  A
C996       O1002   1.314       .  A
C997        C998   1.399       .  A
C997       H1006   1.082       .  S
C998       C1001   1.360       .  A
O999       C1000   1.329       .  A
C1000      C1001   1.388       .  A
C1001      H1007   1.082       .  S
O1002      C1003   1.328       .  A
C1003      C1004   1.388       .  A
C1004      H1008   1.083       .  S
C1009      C1014   1.381       .  A
C1009      C1010   1.402       .  A
C1009      O1015   1.317       .  A
C1010      C1011   1.401       .  A
C1010      H1021   1.083       .  S
C1011      C1020   1.361       .  A
C1011      C1012   1.380       .  A
C1012      C1013   1.404       .  A
C1012      O1018   1.318       .  A
C1013      C1014   1.402       .  A
C1013      H1022   1.083       .  S
C1014      C1017   1.363       .  A
O1015      C1016   1.330       .  A
C1016      C1017   1.391       .  A
C1017      H1023   1.083       .  S
O1018      C1019   1.331       .  A
C1019      C1020   1.389       .  A
C1020      H1024   1.083       .  S
C1025      C1030   1.380       .  A
C1025      C1026   1.396       .  A
C1025      O1031   1.312       .  A
C1026      C1027   1.395       .  A
C1026      H1037   1.083       .  S
C1027      C1036   1.352       .  A
C1027      C1028   1.380       .  A
C1028      C1029   1.410       .  A
C1028      O1034   1.325       .  A
C1029      C1030   1.410       .  A
C1029      H1038   1.082       .  S
C1030      C1033   1.371       .  A
O1031      C1032   1.328       .  A
C1032      C1033   1.395       .  A
C1033      H1039   1.082       .  S
O1034      C1035   1.334       .  A
C1035      C1036   1.389       .  A
C1036      H1040   1.083       .  S
C1041      C1046   1.382       .  A
C1041      C1042   1.402       .  A
C1041      O1047   1.319       .  A
C1042      C1043   1.402       .  A
C1042      H1053   1.083       .  S
C1043      C1052   1.359       .  A
C1043      C1044   1.381       .  A
C1044      C1045   1.401       .  A
C1044      O1050   1.318       .  A
C1045      C1046   1.401       .  A
C1045      H1054   1.083       .  S
C1046      C1049   1.358       .  A
O1047      C1048   1.329       .  A
C1048      C1049   1.389       .  A
C1049      H1055   1.083       .  S
O1050      C1051   1.329       .  A
C1051      C1052   1.390       .  A
C1052      H1056   1.083       .  S
C1057      C1062   1.381       .  A
C1057      C1058   1.403       .  A
C1057      O1063   1.322       .  A
C1058      C1059   1.404       .  A
C1058      H1069   1.083       .  S
C1059      C1068   1.358       .  A
C1059      C1060   1.381       .  A
C1060      C1061   1.400       .  A
C1060      O1066   1.321       .  A
C1061      C1062   1.402       .  A
C1061      H1070   1.083       .  S
C1062      C1065   1.356       .  A
O1063      C1064   1.331       .  A
C1064      C1065   1.391       .  A
C1065      H1071   1.083       .  S
O1066      C1067   1.329       .  A
C1067      C1068   1.393       .  A
C1068      H1072   1.083       .  S
C1073      C1078   1.381       .  A
C1073      C1074   1.394       .  A
C1073      O1079   1.313       .  A
C1074      C1075   1.394       .  A
C1074      H1085   1.082       .  S
C1075      C1084   1.348       .  A
C1075      C1076   1.379       .  A
C1076      C1077   1.411       .  A
C1076      O1082   1.328       .  A
C1077      C1078   1.412       .  A
C1077      H1086   1.082       .  S
C1078      C1081   1.370       .  A
O1079      C1080   1.326       .  A
C1080      C1081   1.395       .  A
C1081      H1087   1.082       .  S
O1082      C1083   1.336       .  A
C1083      C1084   1.388       .  A
C1084      H1088   1.082       .  S
C1089      C1094   1.381       .  A
C1089      C1090   1.404       .  A
C1089      O1095   1.318       .  A
C1090      C1091   1.403       .  A
C1090      H1101   1.082       .  S
C1091      C1100   1.364       .  A
C1091      C1092   1.380       .  A
C1092      C1093   1.406       .  A
C1092      O1098   1.319       .  A
C1093      C1094   1.404       .  A
C1093      H1102   1.083       .  S
C1094      C1097   1.365       .  A
O1095      C1096   1.330       .  A
C1096      C1097   1.391       .  A
C1097      H1103   1.083       .  S
O1098      C1099   1.332       .  A
C1099      C1100   1.390       .  A
C1100      H1104   1.082       .  S
C1105      C1110   1.380       .  A
C1105      C1106   1.403       .  A
C1105      O1111   1.317       .  A
C1106      C1107   1.401       .  A
C1106      H1117   1.083       .  S
C1107      C1116   1.363       .  A
C1107      C1108   1.381       .  A
C1108      C1109   1.403       .  A
C1108      O1114   1.316       .  A
C1109      C1110   1.401       .  A
C1109      H1118   1.083       .  S
C1110      C1113   1.363       .  A
O1111      C1112   1.331       .  A
C1112      C1113   1.390       .  A
C1113      H1119   1.082       .  S
O1114      C1115   1.330       .  A
C1115      C1116   1.390       .  A
C1116      H1120   1.083       .  S
C1121      C1126   1.380       .  A
C1121      C1122   1.410       .  A
C1121      O1127   1.326       .  A
C1122      C1123   1.410       .  A
C1122      H1133   1.082       .  S
C1123      C1132   1.370       .  A
C1123      C1124   1.381       .  A
C1124      C1125   1.395       .  A
C1124      O1130   1.313       .  A
C1125      C1126   1.395       .  A
C1125      H1134   1.083       .  S
C1126      C1129   1.350       .  A
O1127      C1128   1.335       .  A
C1128      C1129   1.389       .  A
C1129      H1135   1.083       .  S
O1130      C1131   1.327       .  A
C1131      C1132   1.395       .  A
C1132      H1136   1.082       .  S
C1137      C1142   1.381       .  A
C1137      C1138   1.394       .  A
C1137      O1143   1.312       .  A
C1138      C1139   1.394       .  A
C1138      H1149   1.083       .  S
C1139      C1148   1.350       .  A
C1139      C1140   1.380       .  A
C1140      C1141   1.410       .  A
C1140      O1146   1.326       .  A
C1141      C1142   1.410       .  A
C1141      H1150   1.083       .  S
C1142      C1145   1.369       .  A
O1143      C1144   1.326       .  A
C1144      C1145   1.395       .  A
C1145      H1151   1.083       .  S
O1146      C1147   1.335       .  A
C1147      C1148   1.388       .  A
C1148      H1152   1.083       .  S
C1153      C1158   1.381       .  A
C1153      C1154   1.401       .  A
C1153      O1159   1.316       .  A
C1154      C1155   1.400       .  A
C1154      H1165   1.082       .  S
C1155      C1164   1.359       .  A
C1155      C1156   1.381       .  A
C1156      C1157   1.405       .  A
C1156      O1162   1.320       .  A
C1157      C1158   1.405       .  A
C1157      H1166   1.082       .  S
C1158      C1161   1.364       .  A
O1159      C1160   1.329       .  A
C1160      C1161   1.391       .  A
C1161      H1167   1.082       .  S
O1162      C1163   1.332       .  A
C1163      C1164   1.388       .  A
C1164      H1168   1.083       .  S
C1169      C1174   1.382       .  A
C1169      C1170   1.398       .  A
C1169      O1175   1.316       .  A
C1170      C1171   1.398       .  A
C1170      H1181   1.083       .  S
C1171      C1180   1.353       .  A
C1171      C1172   1.382       .  A
C1172      C1173   1.400       .  A
C1172      O1178   1.318       .  A
C1173      C1174   1.401       .  A
C1173      H1182   1.083       .  S
C1174      C1177   1.356       .  A
O1175      C1176   1.327       .  A
C1176      C1177   1.391       .  A
C1177      H1183   1.083       .  S
O1178      C1179   1.329       .  A
C1179      C1180   1.389       .  A
C1180      H1184   1.083       .  S
C1185      C1190   1.380       .  A
C1185      C1186   1.410       .  A
C1185      O1191   1.323       .  A
C1186      C1187   1.409       .  A
C1186      H1197   1.082       .  S
C1187      C1196   1.372       .  A
C1187      C1188   1.380       .  A
C1188      C1189   1.399       .  A
C1188      O1194   1.313       .  A
C1189      C1190   1.397       .  A
C1189      H1198   1.082       .  S
C1190      C1193   1.356       .  A
O1191      C1192   1.333       .  A
C1192      C1193   1.387       .  A
C1193      H1199   1.083       .  S
O1194      C1195   1.329       .  A
C1195      C1196   1.395       .  A
C1196      H1200   1.082       .  S
C1201      C1206   1.380       .  A
C1201      C1202   1.406       .  A
C1201      O1207   1.320       .  A
C1202      C1203   1.405       .  A
C1202      H1213   1.083       .  S
C1203      C1212   1.365       .  A
C1203      C1204   1.381       .  A
C1204      C1205   1.401       .  A
C1204      O1210   1.317       .  A
C1205      C1206   1.400       .  A
C1205      H1214   1.083       .  S
C1206      C1209   1.360       .  A
O1207      C1208   1.333       .  A
C1208      C1209   1.388       .  A
C1209      H1215   1.083       .  S
O1210      C1211   1.329       .  A
C1211      C1212   1.392       .  A
C1212      H1216   1.083       .  S
C1217      C1222   1.380       .  A
C1217      C1218   1.403       .  A
C1217      O1223   1.314       .  A
C1218      C1219   1.400       .  A
C1218      H1229   1.083       .  S
C1219      C1228   1.364       .  A
C1219      C1220   1.380       .  A
C1220      C1221   1.402       .  A
C1220      O1226   1.313       .  A
C1221      C1222   1.399       .  A
C1221      H1230   1.083       .  S
C1222      C1225   1.363       .  A
O1223      C1224   1.330       .  A
C1224      C1225   1.389       .  A
C1225      H1231   1.083       .  S
O1226      C1227   1.330       .  A
C1227      C1228   1.390       .  A
C1228      H1232   1.082       .  S
C1233      C1238   1.380       .  A
C1233      C1234   1.397       .  A
C1233      O1239   1.311       .  A
C1234      C1235   1.394       .  A
C1234      H1245   1.083       .  S
C1235      C1244   1.353       .  A
C1235      C1236   1.380       .  A
C1236      C1237   1.409       .  A
C1236      O1242   1.322       .  A
C1237      C1238   1.408       .  A
C1237      H1246   1.082       .  S
C1238      C1241   1.371       .  A
O1239      C1240   1.328       .  A
C1240      C1241   1.395       .  A
C1241      H1247   1.082       .  S
O1242      C1243   1.333       .  A
C1243      C1244   1.387       .  A
C1244      H1248   1.083       .  S
C1249      C1254   1.380       .  A
C1249      C1250   1.404       .  A
C1249      O1255   1.315       .  A
C1250      C1251   1.402       .  A
C1250      H1261   1.083       .  S
C1251      C1260   1.365       .  A
C1251      C1252   1.380       .  A
C1252      C1253   1.402       .  A
C1252      O1258   1.314       .  A
C1253      C1254   1.399       .  A
C1253      H1262   1.083       .  S
C1254      C1257   1.363       .  A
O1255      C1256   1.331       .  A
C1256      C1257   1.388       .  A
C1257      H1263   1.083       .  S
O1258      C1259   1.330       .  A
C1259      C1260   1.391       .  A
C1260      H1264   1.083       .  S
C1265      C1270   1.381       .  A
C1265      C1266   1.405       .  A
C1265      O1271   1.323       .  A
C1266      C1267   1.406       .  A
C1266      H1277   1.083       .  S
C1267      C1276   1.362       .  A
C1267      C1268   1.381       .  A
C1268      C1269   1.401       .  A
C1268      O1274   1.319       .  A
C1269      C1270   1.401       .  A
C1269      H1278   1.083       .  S
C1270      C1273   1.358       .  A
O1271      C1272   1.332       .  A
C1272      C1273   1.389       .  A
C1273      H1279   1.083       .  S
O1274      C1275   1.329       .  A
C1275      C1276   1.391       .  A
C1276      H1280   1.083       .  S
C1281      C1286   1.380       .  A
C1281      C1282   1.412       .  A
C1281      O1287   1.324       .  A
C1282      C1283   1.410       .  A
C1282      H1293   1.082       .  S
C1283      C1292   1.373       .  A
C1283      C1284   1.380       .  A
C1284      C1285   1.396       .  A
C1284      O1290   1.311       .  A
C1285      C1286   1.394       .  A
C1285      H1294   1.083       .  S
C1286      C1289   1.354       .  A
O1287      C1288   1.335       .  A
C1288      C1289   1.384       .  A
C1289      H1295   1.083       .  S
O1290      C1291   1.327       .  A
C1291      C1292   1.396       .  A
C1292      H1296   1.082       .  S
C1297      C1302   1.380       .  A
C1297      C1298   1.397       .  A
C1297      O1303   1.312       .  A
C1298      C1299   1.395       .  A
C1298      H1309   1.083       .  S
C1299      C1308   1.355       .  A
C1299      C1300   1.380       .  A
C1300      C1301   1.410       .  A
C1300      O1306   1.323       .  A
C1301      C1302   1.409       .  A
C1301      H1310   1.082       .  S
C1302      C1305   1.371       .  A
O1303      C1304   1.328       .  A
C1304      C1305   1.395       .  A
C1305      H1311   1.082       .  S
O1306      C1307   1.334       .  A
C1307      C1308   1.387       .  A
C1308      H1312   1.083       .  S
C1313      C1318   1.382       .  A
C1313      C1314   1.393       .  A
C1313      O1319   1.312       .  A
C1314      C1315   1.393       .  A
C1314      H1325   1.083       .  S
C1315      C1324   1.347       .  A
C1315      C1316   1.380       .  A
C1316      C1317   1.409       .  A
C1316      O1322   1.326       .  A
C1317      C1318   1.410       .  A
C1317      H1326   1.082       .  S
C1318      C1321   1.368       .  A
O1319      C1320   1.325       .  A
C1320      C1321   1.394       .  A
C1321      H1327   1.082       .  S
O1322      C1323   1.334       .  A
C1323      C1324   1.386       .  A
C1324      H1328   1.082       .  S
C1329      C1334   1.381       .  A
C1329      C1330   1.403       .  A
C1329      O1335   1.318       .  A
C1330      C1331   1.402       .  A
C1330      H1341   1.083       .  S
C1331      C1340   1.362       .  A
C1331      C1332   1.380       .  A
C1332      C1333   1.406       .  A
C1332      O1338   1.320       .  A
C1333      C1334   1.404       .  A
C1333      H1342   1.083       .  S
C1334      C1337   1.364       .  A
O1335      C1336   1.329       .  A
C1336      C1337   1.391       .  A
C1337      H1343   1.083       .  S
O1338      C1339   1.332       .  A
C1339      C1340   1.390       .  A
C1340      H1344   1.083       .  S
C1345      C1350   1.381       .  A
C1345      C1346   1.403       .  A
C1345      O1351   1.323       .  A
C1346      C1347   1.405       .  A
C1346      H1357   1.083       .  S
C1347      C1356   1.359       .  A
C1347      C1348   1.380       .  A
C1348      C1349   1.405       .  A
C1348      O1354   1.325       .  A
C1349      C1350   1.406       .  A
C1349      H1358   1.083       .  S
C1350      C1353   1.360       .  A
O1351      C1352   1.331       .  A
C1352      C1353   1.394       .  A
C1353      H1359   1.083       .  S
O1354      C1355   1.332       .  A
C1355      C1356   1.393       .  A
C1356      H1360   1.083       .  S
C1361      C1366   1.380       .  A
C1361      C1362   1.397       .  A
C1361      O1367   1.313       .  A
C1362      C1363   1.396       .  A
C1362      H1373   1.082       .  S
C1363      C1372   1.353       .  A
C1363      C1364   1.380       .  A
C1364      C1365   1.412       .  A
C1364      O1370   1.326       .  A
C1365      C1366   1.411       .  A
C1365      H1374   1.082       .  S
C1366      C1369   1.373       .  A
O1367      C1368   1.328       .  A
C1368      C1369   1.396       .  A
C1369      H1375   1.082       .  S
O1370      C1371   1.334       .  A
C1371      C1372   1.386       .  A
C1372      H1376   1.082       .  S
C1377      C1382   1.380       .  A
C1377      C1378   1.410       .  A
C1377      O1383   1.324       .  A
C1378      C1379   1.409       .  A
C1378      H1389   1.083       .  S
C1379      C1388   1.371       .  A
C1379      C1380   1.380       .  A
C1380      C1381   1.396       .  A
C1380      O1386   1.312       .  A
C1381      C1382   1.395       .  A
C1381      H1390   1.083       .  S
C1382      C1385   1.352       .  A
O1383      C1384   1.334       .  A
C1384      C1385   1.388       .  A
C1385      H1391   1.083       .  S
O1386      C1387   1.327       .  A
C1387      C1388   1.394       .  A
C1388      H1392   1.083       .  S
C1393      C1398   1.381       .  A
C1393      C1394   1.392       .  A
C1393      O1399   1.310       .  A
C1394      C1395   1.392       .  A
C1394      H1405   1.083       .  S
C1395      C1404   1.347       .  A
C1395      C1396   1.379       .  A
C1396      C1397   1.415       .  A
C1396      O1402   1.330       .  A
C1397      C1398   1.415       .  A
C1397      H1406   1.083       .  S
C1398      C1401   1.376       .  A
O1399      C1400   1.325       .  A
C1400      C1401   1.397       .  A
C1401      H1407   1.083       .  S
O1402      C1403   1.338       .  A
C1403      C1404   1.386       .  A
C1404      H1408   1.083       .  S
C1409      C1414   1.381       .  A
C1409      C1410   1.402       .  A
C1409      O1415   1.317       .  A
C1410      C1411   1.401       .  A
C1410      H1421   1.083       .  S
C1411      C1420   1.361       .  A
C1411      C1412   1.381       .  A
C1412      C1413   1.405       .  A
C1412      O1418   1.319       .  A
C1413      C1414   1.404       .  A
C1413      H1422   1.083       .  S
C1414      C1417   1.364       .  A
O1415      C1416   1.329       .  A
C1416      C1417   1.390       .  A
C1417      H1423   1.083       .  S
O1418      C1419   1.331       .  A
C1419      C1420   1.389       .  A
C1420      H1424   1.083       .  S
C1425      C1430   1.381       .  A
C1425      C1426   1.402       .  A
C1425      O1431   1.315       .  A
C1426      C1427   1.400       .  A
C1426      H1437   1.083       .  S
C1427      C1436   1.363       .  A
C1427      C1428   1.380       .  A
C1428      C1429   1.404       .  A
C1428      O1434   1.316       .  A
C1429      C1430   1.402       .  A
C1429      H1438   1.083       .  S
C1430      C1433   1.364       .  A
O1431      C1432   1.330       .  A
C1432      C1433   1.391       .  A
C1433      H1439   1.083       .  S
O1434      C1435   1.331       .  A
C1435      C1436   1.389       .  A
C1436      H1440   1.082       .  S
C1441      C1446   1.381       .  A
C1441      C1442   1.395       .  A
C1441      O1447   1.312       .  A
C1442      C1443   1.395       .  A
C1442      H1453   1.083       .  S
C1443      C1452   1.351       .  A
C1443      C1444   1.379       .  A
C1444      C1445   1.412       .  A
C1444      O1450   1.328       .  A
C1445      C1446   1.412       .  A
C1445      H1454   1.082       .  S
C1446      C1449   1.373       .  A
O1447      C1448   1.326       .  A
C1448      C1449   1.396       .  A
C1449      H1455   1.082       .  S
O1450      C1451   1.336       .  A
C1451      C1452   1.388       .  A
C1452      H1456   1.083       .  S
C1457      C1462   1.380       .  A
C1457      C1458   1.396       .  A
C1457      O1463   1.312       .  A
C1458      C1459   1.395       .  A
C1458      H1469   1.083       .  S
C1459      C1468   1.352       .  A
C1459      C1460   1.379       .  A
C1460      C1461   1.412       .  A
C1460      O1466   1.327       .  A
C1461      C1462   1.412       .  A
C1461      H1470   1.082       .  S
C1462      C1465   1.373       .  A
O1463      C1464   1.327       .  A
C1464      C1465   1.396       .  A
C1465      H1471   1.082       .  S
O1466      C1467   1.336       .  A
C1467      C1468   1.389       .  A
C1468      H1472   1.083       .  S
C1473      C1478   1.380       .  A
C1473      C1474   1.411       .  A
C1473      O1479   1.325       .  A
C1474      C1475   1.410       .  A
C1474      H1485   1.083       .  S
C1475      C1484   1.371       .  A
C1475      C1476   1.380       .  A
C1476      C1477   1.394       .  A
C1476      O1482   1.311       .  A
C1477      C1478   1.394       .  A
C1477      H1486   1.083       .  S
C1478      C1481   1.351       .  A
O1479      C1480   1.335       .  A
C1480      C1481   1.388       .  A
C1481      H1487   1.083       .  S
O1482      C1483   1.326       .  A
C1483      C1484   1.396       .  A
C1484      H1488   1.082       .  S
C1489      C1494   1.381       .  A
C1489      C1490   1.404       .  A
C1489      O1495   1.322       .  A
C1490      C1491   1.405       .  A
C1490      H1501   1.083       .  S
C1491      C1500   1.360       .  A
C1491      C1492   1.381       .  A
C1492      C1493   1.402       .  A
C1492      O1498   1.321       .  A
C1493      C1494   1.403       .  A
C1493      H1502   1.083       .  S
C1494      C1497   1.359       .  A
O1495      C1496   1.331       .  A
C1496      C1497   1.392       .  A
C1497      H1503   1.083       .  S
O1498      C1499   1.330       .  A
C1499      C1500   1.393       .  A
C1500      H1504   1.083       .  S
C1505      C1510   1.381       .  A
C1505      C1506   1.401       .  A
C1505      O1511   1.315       .  A
C1506      C1507   1.399       .  A
C1506      H1517   1.083       .  S
C1507      C1516   1.360       .  A
C1507      C1508   1.381       .  A
C1508      C1509   1.403       .  A
C1508      O1514   1.316       .  A
C1509      C1510   1.401       .  A
C1509      H1518   1.083       .  S
C1510      C1513   1.361       .  A
O1511      C1512   1.328       .  A
C1512      C1513   1.389       .  A
C1513      H1519   1.083       .  S
O1514      C1515   1.330       .  A
C1515      C1516   1.387       .  A
C1516      H1520   1.083       .  S
C1521      C1526   1.381       .  A
C1521      C1522   1.395       .  A
C1521      O1527   1.310       .  A
C1522      C1523   1.394       .  A
C1522      H1533   1.083       .  S
C1523      C1532   1.350       .  A
C1523      C1524   1.380       .  A
C1524      C1525   1.408       .  A
C1524      O1530   1.323       .  A
C1525      C1526   1.407       .  A
C1525      H1534   1.083       .  S
C1526      C1529   1.368       .  A
O1527      C1528   1.327       .  A
C1528      C1529   1.393       .  A
C1529      H1535   1.083       .  S
O1530      C1531   1.333       .  A
C1531      C1532   1.389       .  A
C1532      H1536   1.083       .  S
C1537      C1542   1.382       .  A
C1537      C1538   1.391       .  A
C1537      O1543   1.308       .  A
C1538      C1539   1.389       .  A
C1538      H1549   1.083       .  S
C1539      C1548   1.344       .  A
C1539      C1540   1.380       .  A
C1540      C1541   1.408       .  A
C1540      O1546   1.323       .  A
C1541      C1542   1.408       .  A
C1541      H1550   1.083       .  S
C1542      C1545   1.367       .  A
O1543      C1544   1.324       .  A
C1544      C1545   1.393       .  A
C1545      H1551   1.083       .  S
O1546      C1547   1.333       .  A
C1547      C1548   1.385       .  A
C1548      H1552   1.084       .  S
C1553      C1558   1.381       .  A
C1553      C1554   1.398       .  A
C1553      O1559   1.313       .  A
C1554      C1555   1.397       .  A
C1554      H1565   1.083       .  S
C1555      C1564   1.355       .  A
C1555      C1556   1.380       .  A
C1556      C1557   1.409       .  A
C1556      O1562   1.324       .  A
C1557      C1558   1.408       .  A
C1557      H1566   1.082       .  S
C1558      C1561   1.370       .  A
O1559      C1560   1.328       .  A
C1560      C1561   1.392       .  A
C1561      H1567   1.082       .  S
O1562      C1563   1.333       .  A
C1563      C1564   1.389       .  A
C1564      H1568   1.083       .  S
C1569      C1574   1.380       .  A
C1569      C1570   1.410       .  A
C1569      O1575   1.325       .  A
C1570      C1571   1.410       .  A
C1570      H1581   1.082       .  S
C1571      C1580   1.370       .  A
C1571      C1572   1.381       .  A
C1572      C1573   1.395       .  A
C1572      O1578   1.311       .  A
C1573      C1574   1.395       .  A
C1573      H1582   1.083       .  S
C1574      C1577   1.350       .  A
O1575      C1576   1.335       .  A
C1576      C1577   1.389       .  A
C1577      H1583   1.083       .  S
O1578      C1579   1.326       .  A
C1579      C1580   1.395       .  A
C1580      H1584   1.082       .  S
C1585      C1590   1.381       .  A
C1585      C1586   1.402       .  A
C1585      O1591   1.316       .  A
C1586      C1587   1.400       .  A
C1586      H1597   1.082       .  S
C1587      C1596   1.361       .  A
C1587      C1588   1.381       .  A
C1588      C1589   1.405       .  A
C1588      O1594   1.318       .  A
C1589      C1590   1.403       .  A
C1589      H1598   1.082       .  S
C1590      C1593   1.364       .  A
O1591      C1592   1.329       .  A
C1592      C1593   1.391       .  A
C1593      H1599   1.082       .  S
O1594      C1595   1.331       .  A
C1595      C1596   1.388       .  A
C1596      H1600   1.082       .  S
C1601      C1606   1.381       .  A
C1601      C1602   1.401       .  A
C1601      O1607   1.320       .  A
C1602      C1603   1.402       .  A
C1602      H1613   1.082       .  S
C1603      C1612   1.356       .  A
C1603      C1604   1.381       .  A
C1604      C1605   1.400       .  A
C1604      O1610   1.319       .  A
C1605      C1606   1.401       .  A
C1605      H1614   1.083       .  S
C1606      C1609   1.356       .  A
O1607      C1608   1.329       .  A
C1608      C1609   1.391       .  A
C1609      H1615   1.083       .  S
O1610      C1611   1.329       .  A
C1611      C1612   1.391       .  A
C1612      H1616   1.083       .  S
C1617      C1622   1.380       .  A
C1617      C1618   1.397       .  A
C1617      O1623   1.313       .  A
C1618      C1619   1.397       .  A
C1618      H1629   1.083       .  S
C1619      C1628   1.352       .  A
C1619      C1620   1.380       .  A
C1620      C1621   1.410       .  A
C1620      O1626   1.326       .  A
C1621      C1622   1.409       .  A
C1621      H1630   1.082       .  S
C1622      C1625   1.369       .  A
O1623      C1624   1.328       .  A
C1624      C1625   1.394       .  A
C1625      H1631   1.082       .  S
O1626      C1627   1.334       .  A
C1627      C1628   1.390       .  A
C1628      H1632   1.083       .  S
C1633      C1638   1.381       .  A
C1633      C1634   1.393       .  A
C1633      O1639   1.310       .  A
C1634      C1635   1.392       .  A
C1634      H1645   1.083       .  S
C1635      C1644   1.347       .  A
C1635      C1636   1.379       .  A
C1636      C1637   1.413       .  A
C1636      O1642   1.329       .  A
C1637      C1638   1.413       .  A
C1637      H1646   1.082       .  S
C1638      C1641   1.373       .  A
O1639      C1640   1.325       .  A
C1640      C1641   1.396       .  A
C1641      H1647   1.082       .  S
O1642      C1643   1.336       .  A
C1643      C1644   1.387       .  A
C1644      H1648   1.083       .  S
C1649      C1654   1.381       .  A
C1649      C1650   1.407       .  A
C1649      O1655   1.324       .  A
C1650      C1651   1.407       .  A
C1650      H1661   1.082       .  S
C1651      C1660   1.365       .  A
C1651      C1652   1.381       .  A
C1652      C1653   1.395       .  A
C1652      O1658   1.312       .  A
C1653      C1654   1.396       .  A
C1653      H1662   1.083       .  S
C1654      C1657   1.350       .  A
O1655      C1656   1.333       .  A
C1656      C1657   1.390       .  A
C1657      H1663   1.083       .  S
O1658      C1659   1.326       .  A
C1659      C1660   1.393       .  A
C1660      H1664   1.083       .  S
C1665      C1670   1.381       .  A
C1665      C1666   1.396       .  A
C1665      O1671   1.311       .  A
C1666      C1667   1.395       .  A
C1666      H1677   1.083       .  S
C1667      C1676   1.352       .  A
C1667      C1668   1.380       .  A
C1668      C1669   1.410       .  A
C1668      O1674   1.325       .  A
C1669      C1670   1.410       .  A
C1669      H1678   1.083       .  S
C1670      C1673   1.370       .  A
O1671      C1672   1.327       .  A
C1672      C1673   1.394       .  A
C1673      H1679   1.083       .  S
O1674      C1675   1.334       .  A
C1675      C1676   1.388       .  A
C1676      H1680   1.083       .  S
