geometry optimzed in LAMMPS
_audit_creation_date              2020-12-01 
_audit_creation_method            'lammps2cif' 
_symmetry_space_group_name_H-M    'P1' 
_symmetry_Int_Tables_number       1 
_symmetry_cell_setting            triclinic 
loop_ 
_symmetry_equiv_pos_as_xyz 
  x,y,z 
_cell_length_a                    57.91285378 
_cell_length_b                    58.440319844571064 
_cell_length_c                    44.45155027659734 
_cell_angle_alpha                 90.39100109862126 
_cell_angle_beta                  89.43912488086059 
_cell_angle_gamma                 120.72825049085475 
loop_ 
_atom_site_label 
_atom_site_type_symbol 
_atom_site_fract_x 
_atom_site_fract_y 
_atom_site_fract_z 
_atom_site_charge 
O1          O  0.40160641  0.05244023  0.43577352    -0.82000
C2          C  0.49477143  0.07019687  0.37085241     0.97400
O3          O  0.48551091  0.05925789  0.39581007    -0.71100
O4          O  0.48162290  0.09151524  0.43342671    -0.74700
Al5        Al  0.45808378  0.05614981  0.42172016     1.49000
C6          C  0.47416524  0.10619113  0.44562728     0.92600
O7          O  0.44488538  0.11225156  0.38507606    -0.80900
O8          O  0.40596838  0.04185570  0.35167797    -0.74500
Al9        Al  0.42452106  0.08177846  0.40958032     1.90100
O10         O  0.44766733  0.09322045  0.34344333    -0.73600
O11         O  0.43929905  0.02508999  0.36227615    -0.73400
O12         O  0.48180299  0.07731070  0.35481077    -0.79100
O13         O  0.43600776  0.02015092  0.41148633    -0.77300
O14         O  0.44191040  0.06600216  0.39562209    -1.13400
O15         O  0.43459772  0.04985547  0.45523577    -0.72600
C16         C  0.41047119  0.04412451  0.45614384     0.98100
C17         C  0.45100653  0.11357682  0.35753705     0.94500
Al18       Al  0.44342481  0.05993621  0.35638373     1.55600
O19         O  0.45050058  0.10176492  0.44142269    -0.77200
C20         C  0.43383259  0.01049571  0.38544615     0.98700
C21         C  0.38939645  0.04818796  0.36081504     0.93600
O22         O  0.39556534  0.06555948  0.38113157    -0.82500
O23         O  0.11400842  0.16367257  0.56145727    -0.82000
C24         C  0.01369179  0.08250795  0.60674424     0.97400
O25         O  0.02704220  0.08198704  0.58462648    -0.71100
O26         O  0.03455894  0.12150282  0.55141106    -0.74700
Al27       Al  0.05711649  0.10925247  0.56417424     1.49000
C28         C  0.04289759  0.14491316  0.54265301     0.92600
O29         O  0.06396340  0.17376791  0.60747703    -0.80900
O30         O  0.10011161  0.14001187  0.64126658    -0.74500
Al31       Al  0.08757695  0.16697936  0.58491929     1.90100
O32         O  0.05794260  0.14875765  0.64680726    -0.73600
O33         O  0.06777421  0.09062378  0.62356464    -0.73400
O34         O  0.02497916  0.10010888  0.62677842    -0.79100
O35         O  0.07869215  0.09544833  0.57554440    -0.77300
O36         O  0.06937352  0.13252248  0.59388416    -1.13400
O37         O  0.08404803  0.13018108  0.53508076    -0.72600
C38         C  0.10805779  0.14818037  0.53921103     0.98100
C39         C  0.05584766  0.16695256  0.63419660     0.94500
Al40       Al  0.06330045  0.12092684  0.63168579     1.55600
O41         O  0.06596664  0.16387657  0.55008506    -0.77200
C42         C  0.07669229  0.08444754  0.60057205     0.98700
C43         C  0.11672848  0.16429188  0.63655509     0.93600
O44         O  0.11195550  0.17721026  0.61752744    -0.82500
O45         O  0.06037010  0.38860871  0.55113098    -0.82000
C46         C  0.07092977  0.48272964  0.60020615     0.97400
O47         O  0.05752976  0.46967481  0.57774451    -0.71100
O48         O  0.09146535  0.46616676  0.54289009    -0.74700
Al49       Al  0.05677153  0.44140138  0.55595788     1.49000
C50         C  0.10971323  0.46157425  0.53539442     0.92600
O51         O  0.11820113  0.43967141  0.60056879    -0.80900
O52         O  0.04488497  0.39715391  0.63069185    -0.74500
Al53       Al  0.08863003  0.41544365  0.57602968     1.90100
O54         O  0.09528187  0.44065387  0.63948605    -0.73600
O55         O  0.02638305  0.42816481  0.61512569    -0.73400
O56         O  0.07799754  0.47189615  0.61966372    -0.79100
O57         O  0.02064451  0.41759682  0.56730549    -0.77300
O58         O  0.06926598  0.43032509  0.58524460    -1.13400
O59         O  0.05304216  0.41616655  0.52617350    -0.72600
C60         C  0.04867128  0.39302246  0.53011140     0.98100
C61         C  0.11731983  0.44545608  0.62788883     0.94500
Al62       Al  0.06177716  0.43404508  0.62322727     1.55600
O63         O  0.10813069  0.43974519  0.54250404    -0.77200
C64         C  0.01119291  0.41928716  0.59236278     0.98700
C65         C  0.05433690  0.38225146  0.62569030     0.93600
O66         O  0.07382761  0.38918407  0.60760689    -0.82500
O67         O  0.16889014  0.10781566  0.44658218    -0.82000
C68         C  0.09555136  0.01282800  0.39507613     0.97400
O69         O  0.10507635  0.02322711  0.42020788    -0.71100
O70         O  0.13666003  0.05572608  0.46168297    -0.74700
Al71       Al  0.11621086  0.05860013  0.42977597     1.49000
C72         C  0.15501840  0.05031137  0.45888361     0.92600
O73         O  0.18952602  0.07515663  0.38243955    -0.80900
O74         O  0.16041708  0.09698786  0.34874449    -0.74500
Al75       Al  0.17577875  0.08927314  0.41315981     1.90100
O76         O  0.15311396  0.04692073  0.35819100    -0.73600
O77         O  0.10998167  0.07812901  0.36414496    -0.73400
O78         O  0.10258876  0.02714811  0.37148101    -0.79100
O79         O  0.08880871  0.05793624  0.40541942    -0.77300
O80         O  0.14164706  0.07053310  0.40189064    -1.13400
O81         O  0.12579126  0.09319701  0.44090056    -0.72600
C82         C  0.14829334  0.10993531  0.45163866     0.98100
C83         C  0.17720140  0.05545637  0.36479063     0.94500
Al84       Al  0.13249548  0.06299769  0.36358975     1.55600
O85         O  0.17206240  0.06075201  0.43794887    -0.77200
C86         C  0.08965664  0.06922874  0.38103508     0.98700
C87         C  0.17672446  0.11863257  0.36180554     0.93600
O88         O  0.18260983  0.11865067  0.38907188    -0.82500
O89         O  0.44899405  0.33838783  0.43166556    -0.82000
C90         C  0.43356164  0.41595781  0.37424229     0.97400
O91         O  0.44604375  0.41826310  0.39817913    -0.71100
O92         O  0.41493028  0.38254551  0.43691550    -0.74700
Al93       Al  0.44958960  0.39347789  0.42233695     1.49000
C94         C  0.39873558  0.36006895  0.44782183     0.92600
O95         O  0.38874186  0.32605664  0.38434104    -0.80900
O96         O  0.46115597  0.35608644  0.35120255    -0.74500
Al97       Al  0.41941902  0.33386808  0.40762176     1.90100
O98         O  0.40996338  0.34675258  0.34302967    -0.73600
O99         O  0.47937862  0.40661995  0.36144129    -0.73400
O100        O  0.42727101  0.39674314  0.35658084    -0.79100
O101        O  0.48502485  0.40673259  0.41007827    -0.77300
O102        O  0.43744117  0.36761412  0.39526909    -1.13400
O103        O  0.45660696  0.37520811  0.45344961    -0.72600
C104        C  0.46141966  0.35652489  0.45092402     0.98100
C105        C  0.38841410  0.33066912  0.35660869     0.94500
Al106      Al  0.44384560  0.37570927  0.35626425     1.55600
O107        O  0.40129181  0.34013628  0.44180413    -0.77200
C108        C  0.49454994  0.41486104  0.38416509     0.98700
C109        C  0.45258552  0.33219793  0.35793634     0.93600
O110        O  0.43323867  0.32032671  0.37645484    -0.82500
O111        O  0.33871268  0.43610986  0.54715152    -0.82000
C112        C  0.41230255  0.42139040  0.60968236     0.97400
O113        O  0.40415028  0.42051615  0.58329302    -0.71100
O114        O  0.37470138  0.41686009  0.53758163    -0.74700
Al115      Al  0.39170825  0.44228525  0.56925869     1.49000
C116        C  0.35518559  0.39329138  0.53814022     0.92600
O117        O  0.31724735  0.38415203  0.61243700    -0.80900
O118        O  0.34183838  0.43624383  0.64572745    -0.74500
Al119      Al  0.33109588  0.41134953  0.58126610     1.90100
O120        O  0.35176984  0.39540980  0.64176603    -0.73600
O121        O  0.39221606  0.47043207  0.63249305    -0.73400
O122        O  0.40339733  0.42907583  0.63131578    -0.79100
O123        O  0.41603073  0.47138821  0.59367141    -0.77300
O124        O  0.36455614  0.42853182  0.59517301    -1.13400
O125        O  0.38156486  0.46533103  0.55356673    -0.72600
C126        C  0.35937474  0.45892570  0.54192603     0.98100
C127        C  0.32810616  0.37880617  0.63383134     0.94500
Al128      Al  0.37160215  0.43234833  0.63456535     1.55600
O129        O  0.33670259  0.38665791  0.55741837    -0.77200
C130        C  0.41217540  0.48311719  0.61531719     0.98700
C131        C  0.32517562  0.43949338  0.63100571     0.93600
O132        O  0.32123028  0.43316591  0.60350733    -0.82500
O133        O  0.27439029  0.99683798  0.21515362    -0.82000
C134        C  0.17967385  0.42072966  0.26386055     0.97400
O135        O  0.18989493  0.43157762  0.23898811    -0.71100
O136        O  0.22180083  0.46601812  0.19890170    -0.74700
Al137      Al  0.22572813  0.44417330  0.22804117     1.49000
C138        C  0.21570078  0.48344079  0.20462695     0.92600
O139        O  0.24389880  0.01368756  0.28369173    -0.80900
O140        O  0.26515109  0.48441990  0.31071026    -0.74500
Al141      Al  0.25649996  0.00133939  0.25063485     1.90100
O142        O  0.21434916  0.47714454  0.30428444    -0.73600
O143        O  0.24613354  0.43461463  0.29170146    -0.73400
O144        O  0.19430949  0.42704332  0.28721288    -0.79100
O145        O  0.22614495  0.41609450  0.24943025    -0.77300
O146        O  0.23778274  0.46783342  0.25764494    -1.13400
O147        O  0.26073293  0.45502025  0.21513225    -0.72600
C148        C  0.27731498  0.47805258  0.20578477     0.98100
C149        C  0.22474043  0.00162825  0.30218462     0.94500
Al150      Al  0.23062676  0.45682382  0.29550997     1.55600
O151        O  0.22690327  0.49950868  0.22601034    -0.77200
C152        C  0.23767370  0.41564716  0.27312253     0.98700
C153        C  0.28703875  0.00002536  0.29939431     0.93600
O154        O  0.28639663  0.00661125  0.27258936    -0.82500
O155        O  0.05821515  0.38575484  0.10691189    -0.82000
C156        C  0.15886962  0.40573143  0.06200781     0.97400
O157        O  0.14465487  0.39054567  0.08290066    -0.71100
O158        O  0.13566726  0.41840522  0.12113495    -0.74700
Al159      Al  0.11350732  0.38550470  0.10290689     1.49000
C160        C  0.12920198  0.43480560  0.13018078     0.92600
O161        O  0.11050158  0.44870933  0.06573197    -0.80900
O162        O  0.07398893  0.38091287  0.02482812    -0.74500
Al163      Al  0.08589684  0.41654551  0.08602877     1.90100
O164        O  0.11724184  0.43183077  0.02473869    -0.73600
O165        O  0.10523467  0.36169611  0.03961897    -0.73400
O166        O  0.14865232  0.41376375  0.04282527    -0.79100
O167        O  0.09236538  0.35129219  0.08655667    -0.77300
O168        O  0.10334813  0.39997813  0.07485064    -1.13400
O169        O  0.08510179  0.37657597  0.13081913    -0.72600
C170        C  0.06191523  0.37246422  0.12642456     0.98100
C171        C  0.11899032  0.45147078  0.03895962     0.94500
Al172      Al  0.11058734  0.39732361  0.03618767     1.55600
O173        O  0.10738484  0.43301132  0.12200761    -0.77200
C174        C  0.09565810  0.34456714  0.06055782     0.98700
C175        C  0.05714996  0.38771415  0.03182677     0.93600
O176        O  0.06164431  0.40402292  0.05292095    -0.82500
O177        O  0.99964319  0.27353862  0.22165379    -0.82000
C178        C  0.08369633  0.25984754  0.26307639     0.97400
O179        O  0.08358753  0.27319099  0.24114633    -0.71100
O180        O  0.04359985  0.23997521  0.20855127    -0.74700
Al181      Al  0.05539034  0.27453551  0.22186310     1.49000
C182        C  0.01990714  0.22270720  0.20170480     0.92600
O183        O  0.49047107  0.21558927  0.26710529    -0.80900
O184        O  0.02496242  0.28556644  0.30036953    -0.74500
Al185      Al  0.49764187  0.24610343  0.24510442     1.90100
O186        O  0.01714823  0.23508142  0.30528949    -0.73600
O187        O  0.07472834  0.30443469  0.28131250    -0.73400
O188        O  0.06609491  0.25284485  0.28353566    -0.79100
O189        O  0.06928832  0.31021324  0.23368098    -0.77300
O190        O  0.03225725  0.26251371  0.25231112    -1.13400
O191        O  0.03326104  0.27892576  0.19393701    -0.72600
C192        C  0.01543176  0.28451162  0.19974763     0.98100
C193        C  0.49770283  0.21421208  0.29334096     0.94500
Al194      Al  0.04458187  0.26891851  0.28972229     1.55600
O195        O  0.00029242  0.22558398  0.20934178    -0.77200
C196        C  0.08092019  0.31949690  0.25846949     0.98700
C197        C  0.50092577  0.27799645  0.29795360     0.93600
O198        O  0.48749161  0.26024762  0.27858724    -0.82500
O199        O  0.11394076  0.16660782  0.10219864    -0.82000
C200        C  0.09716463  0.24715213  0.05674381     0.97400
O201        O  0.11103986  0.24777561  0.07855449    -0.71100
O202        O  0.07817108  0.20862111  0.11294391    -0.74700
Al203      Al  0.11315176  0.22073400  0.09897579     1.49000
C204        C  0.06131650  0.18510893  0.12068870     0.92600
O205        O  0.05318586  0.15444096  0.05610884    -0.80900
O206        O  0.12389646  0.18879789  0.02110886    -0.74500
Al207      Al  0.08395756  0.16245210  0.07887582     1.90100
O208        O  0.07272115  0.18001762  0.01700770    -0.73600
O209        O  0.14216270  0.23824697  0.03850035    -0.73400
O210        O  0.08994884  0.22918223  0.03695057    -0.79100
O211        O  0.14922546  0.23483256  0.08634928    -0.77300
O212        O  0.10105776  0.19689284  0.06946464    -1.13400
O213        O  0.11837444  0.20023972  0.12826933    -0.72600
C214        C  0.12439854  0.18271138  0.12380551     0.98100
C215        C  0.05216192  0.16093266  0.02934065     0.94500
Al216      Al  0.10666257  0.20803290  0.03145294     1.55600
O217        O  0.06469717  0.16589317  0.11353264    -0.77200
C218        C  0.15798542  0.24512601  0.06069542     0.98700
C219        C  0.11610007  0.16471836  0.02634408     0.93600
O220        O  0.09850468  0.15195239  0.04628166    -0.82500
O221        O  0.33850951  0.44494415  0.10375642    -0.82000
C222        C  0.25714170  0.34474515  0.05920023     0.97400
O223        O  0.25654625  0.35794291  0.08127294    -0.71100
O224        O  0.29577053  0.36711387  0.11611034    -0.74700
Al225      Al  0.28332652  0.38863335  0.10103649     1.49000
C226        C  0.31935380  0.37487973  0.12438669     0.92600
O227        O  0.35011530  0.39564471  0.05839062    -0.80900
O228        O  0.31586830  0.43037036  0.02255214    -0.74500
Al229      Al  0.34224558  0.41877573  0.08079400     1.90100
O230        O  0.32459221  0.38827627  0.01911170    -0.73600
O231        O  0.26570670  0.39832450  0.03999230    -0.73400
O232        O  0.27502883  0.35589195  0.03911735    -0.79100
O233        O  0.26873548  0.40904755  0.08780242    -0.77300
O234        O  0.30746203  0.40041672  0.07146947    -1.13400
O235        O  0.30350781  0.41615996  0.12945561    -0.72600
C236        C  0.32204610  0.43972309  0.12507599     0.98100
C237        C  0.34328588  0.38692287  0.03190419     0.94500
Al238      Al  0.29636040  0.39385751  0.03332233     1.55600
O239        O  0.33885720  0.39724650  0.11597048    -0.77200
C240        C  0.25841810  0.40689462  0.06226701     0.98700
C241        C  0.33988717  0.44763961  0.02836249     0.93600
O242        O  0.35269223  0.44331332  0.04815960    -0.82500
O243        O  0.22441902  0.22310063  0.21912304    -0.82000
C244        C  0.24027917  0.31911464  0.27116066     0.97400
O245        O  0.22825813  0.30721378  0.24756835    -0.71100
O246        O  0.26141121  0.30163768  0.21266224    -0.74700
Al247      Al  0.22618906  0.27839193  0.22534824     1.49000
C248        C  0.27823878  0.29525225  0.20425460     0.92600
O249        O  0.28525498  0.27066368  0.26646447    -0.80900
O250        O  0.21482034  0.23363380  0.30166906    -0.74500
Al251      Al  0.25435502  0.24830758  0.24310431     1.90100
O252        O  0.26599003  0.27659305  0.30618234    -0.73600
O253        O  0.19629216  0.26456063  0.28562064    -0.73400
O254        O  0.24853564  0.30825892  0.28902506    -0.79100
O255        O  0.19007987  0.25603045  0.23709852    -0.77300
O256        O  0.23762776  0.26561723  0.25396428    -1.13400
O257        O  0.22064771  0.25302234  0.19451482    -0.72600
C258        C  0.21403778  0.22912592  0.19816265     0.98100
C259        C  0.28648449  0.27858508  0.29323207     0.94500
Al260      Al  0.23193788  0.27026081  0.29243298     1.55600
O261        O  0.27421433  0.27210684  0.20946601    -0.77200
C262        C  0.18094251  0.25665936  0.26288750     0.98700
C263        C  0.22172173  0.21708285  0.29461786     0.93600
O264        O  0.23892034  0.22205427  0.27417780    -0.82500
O265        O  0.38692414  0.05841922  0.89171874    -0.82000
C266        C  0.41401294  0.15437323  0.95430416     0.97400
O267        O  0.40022953  0.14502921  0.93085912    -0.71100
O268        O  0.42500565  0.13647818  0.88768228    -0.74700
Al269      Al  0.39117501  0.11519224  0.90587917     1.49000
C270        C  0.43917709  0.12865060  0.87486852     0.92600
O271        O  0.45104348  0.10367885  0.93689202    -0.80900
O272        O  0.38018754  0.06495356  0.97539254    -0.74500
Al273      Al  0.41826844  0.08212424  0.91508411     1.90100
O274        O  0.43269886  0.10402136  0.98013072    -0.73600
O275        O  0.36657018  0.10123537  0.96954559    -0.73400
O276        O  0.41960185  0.14026461  0.97051369    -0.79100
O277        O  0.35600338  0.09587605  0.92172497    -0.77300
O278        O  0.40316639  0.09980146  0.93044976    -1.13400
O279        O  0.37901308  0.08886243  0.87485777    -0.72600
C280        C  0.37433167  0.06530573  0.87443761     0.98100
C281        C  0.45305304  0.10858250  0.96485019     0.94500
Al282      Al  0.40002234  0.10222105  0.97035559     1.55600
O283        O  0.43587816  0.10598860  0.88094891    -0.77200
C284        C  0.34997571  0.09644854  0.94887538     0.98700
C285        C  0.38703014  0.04869709  0.96672917     0.93600
O286        O  0.40400187  0.05458060  0.94560500    -0.82500
O287        O  0.00001905  0.27732262  0.76596293    -0.82000
C288        C  0.42378940  0.17818952  0.71336262     0.97400
O289        O  0.41886211  0.19125139  0.73248579    -0.71100
O290        O  0.45148025  0.20070857  0.77566164    -0.74700
Al291      Al  0.44195012  0.22232174  0.75481109     1.49000
C292        C  0.47384823  0.20595262  0.78579962     0.92600
O293        O  0.01252503  0.22833410  0.72189850    -0.80900
O294        O  0.48155716  0.26406720  0.68156219    -0.74500
Al295      Al  0.00337530  0.25129675  0.74258166     1.90100
O296        O  0.49358335  0.22503056  0.68038103    -0.73600
O297        O  0.43030134  0.22857189  0.69033444    -0.73400
O298        O  0.44388729  0.18984506  0.69603273    -0.79100
O299        O  0.42918603  0.24266754  0.73577021    -0.77300
O300        O  0.46963797  0.23380232  0.72975564    -1.13400
O301        O  0.45843035  0.25022600  0.78338051    -0.72600
C302        C  0.48008349  0.27219233  0.78407665     0.98100
C303        C  0.00860366  0.22146579  0.69470886     0.94500
Al304      Al  0.46303830  0.22756063  0.69039295     1.55600
O305        O  0.99586946  0.22772133  0.77707846    -0.77200
C306        C  0.42051658  0.23759238  0.70923469     0.98700
C307        C  0.00412179  0.28144521  0.68879725     0.93600
O308        O  0.01620060  0.27733040  0.71003178    -0.82500
O309        O  0.44880567  0.32701137  0.89542444    -0.82000
C310        C  0.35115473  0.24931559  0.94930837     0.97400
O311        O  0.36515960  0.24471245  0.93108654    -0.71100
O312        O  0.37366494  0.27631104  0.88674083    -0.74700
Al313      Al  0.39635592  0.26871103  0.90880135     1.49000
C314        C  0.37798438  0.29814865  0.87644355     0.92600
O315        O  0.39806024  0.33762465  0.94008461    -0.80900
O316        O  0.43716644  0.30992339  0.98164293    -0.74500
Al317      Al  0.42198039  0.32929432  0.91910371     1.90100
O318        O  0.39568272  0.31865300  0.98286950    -0.73600
O319        O  0.40363592  0.25825206  0.97373573    -0.73400
O320        O  0.36215102  0.26881372  0.96725329    -0.79100
O321        O  0.41823816  0.25829529  0.92832261    -0.77300
O322        O  0.40635709  0.29614484  0.93345439    -1.13400
O323        O  0.42456173  0.28582094  0.88051699    -0.72600
C324        C  0.44557100  0.30819146  0.87861858     0.98100
C325        C  0.39197081  0.33450613  0.96764094     0.94500
Al326      Al  0.40024201  0.28956197  0.97301244     1.55600
O327        O  0.39787098  0.32009666  0.88509318    -0.77200
C328        C  0.41458333  0.25023513  0.95509442     0.98700
C329        C  0.45389142  0.33303325  0.97226231     0.93600
O330        O  0.44857909  0.34354828  0.95048695    -0.82500
O331        O  0.17113563  0.10778546  0.89199759    -0.82000
C332        C  0.25498564  0.10140557  0.94847557     0.97400
O333        O  0.25554790  0.11326657  0.92473201    -0.71100
O334        O  0.21998269  0.07904704  0.88777101    -0.74700
Al335      Al  0.22844272  0.11293955  0.90099868     1.49000
C336        C  0.19760868  0.06146859  0.87755854     0.92600
O337        O  0.16207004  0.05043374  0.94185538    -0.80900
O338        O  0.19057049  0.12157929  0.97331374    -0.74500
Al339      Al  0.16864778  0.07991867  0.91733089     1.90100
O340        O  0.18418455  0.07217761  0.98208345    -0.73600
O341        O  0.24135064  0.14217010  0.96068863    -0.73400
O342        O  0.23472306  0.09168141  0.96561731    -0.79100
O343        O  0.23901508  0.14813627  0.91243133    -0.77300
O344        O  0.20272847  0.09942285  0.92872894    -1.13400
O345        O  0.20832828  0.11629370  0.86963157    -0.72600
C346        C  0.18841720  0.11932825  0.87150269     0.98100
C347        C  0.16787112  0.05054291  0.96923381     0.94500
Al348      Al  0.21171254  0.10622344  0.96733203     1.55600
O349        O  0.17633249  0.06197122  0.88406221    -0.77200
C350        C  0.24857192  0.15745934  0.93799728     0.98700
C351        C  0.16669697  0.11332171  0.96587155     0.93600
O352        O  0.15468141  0.09391115  0.94775380    -0.82500
O353        O  0.27700080  0.50517667  0.77880577    -0.82000
C354        C  0.26329536  0.07856951  0.70434964     0.97400
O355        O  0.27476608  0.08143203  0.72903758    -0.71100
O356        O  0.24299391  0.04476080  0.76659304    -0.74700
Al357      Al  0.27888368  0.05804492  0.75423747     1.49000
C358        C  0.22979362  0.02293203  0.78019450     0.92600
O359        O  0.22192270  0.48633798  0.71824078    -0.80900
O360        O  0.29486362  0.02094528  0.68439854    -0.74500
Al361      Al  0.25122723  0.49951971  0.74673672     1.90100
O362        O  0.24316727  0.01006701  0.67560798    -0.73600
O363        O  0.31152001  0.07132655  0.69485503    -0.73400
O364        O  0.25900297  0.05986452  0.68682988    -0.79100
O365        O  0.31500437  0.07332202  0.74399921    -0.77300
O366        O  0.26950461  0.03212845  0.72771547    -1.13400
O367        O  0.28600059  0.04143282  0.78687866    -0.72600
C368        C  0.29290051  0.02417965  0.78631102     0.98100
C369        C  0.21645638  0.49701065  0.69697742     0.94500
Al370      Al  0.27654711  0.03978426  0.68866523     1.55600
O371        O  0.23024737  0.50881753  0.77302901    -0.77200
C372        C  0.32552506  0.08094191  0.71839510     0.98700
C373        C  0.27611769  0.49170785  0.69454566     0.93600
O374        O  0.26988643  0.48745507  0.72215332    -0.82500
O375        O  0.22606118  0.21487020  0.77132715    -0.82000
C376        C  0.32036132  0.23213922  0.71010136     0.97400
O377        O  0.30850592  0.21674585  0.73203303    -0.71100
O378        O  0.30230436  0.24174267  0.77661289    -0.74700
Al379      Al  0.27861899  0.21023713  0.75676010     1.49000
C380        C  0.29833637  0.25925875  0.78790389     0.92600
O381        O  0.27639565  0.27636565  0.72666124    -0.80900
O382        O  0.23367002  0.20686286  0.68815648    -0.74500
Al383      Al  0.25249185  0.24444904  0.74803524     1.90100
O384        O  0.27491367  0.25810633  0.68317984    -0.73600
O385        O  0.26730005  0.18973015  0.69251011    -0.73400
O386        O  0.30894579  0.24168584  0.69492816    -0.79100
O387        O  0.25582307  0.17655984  0.73892140    -0.77300
O388        O  0.26734856  0.22654448  0.73278051    -1.13400
O389        O  0.25168525  0.20009303  0.78702478    -0.72600
C390        C  0.22987073  0.19987686  0.78814919     0.98100
C391        C  0.28044936  0.27842379  0.69861673     0.94500
Al392      Al  0.27080255  0.22439810  0.69305920     1.55600
O393        O  0.27734293  0.25988097  0.78161923    -0.77200
C394        C  0.25806844  0.17137803  0.71187523     0.98700
C395        C  0.21797406  0.21428598  0.69763272     0.93600
O396        O  0.22516584  0.23240700  0.71740709    -0.82500
C397        C  0.23704721  0.09885457  0.71813062    -0.12500
C398        C  0.25478561  0.09759983  0.69759796     0.04500
C399        C  0.26946391  0.11878229  0.67752251    -0.07800
C400        C  0.26813441  0.14202316  0.68040122    -0.08500
C401        C  0.25283166  0.14453612  0.70363659    -0.03100
C402        C  0.23608303  0.12208124  0.72149824     0.03800
N403        N  0.21938783  0.12301117  0.74468637     0.66300
H404        H  0.22578920  0.08259164  0.73374110     0.15200
H405        H  0.28112043  0.15897372  0.66635913     0.14900
N406        N  0.28817628  0.11823635  0.65675646     0.74000
O407        O  0.19441525  0.11149638  0.74038306    -0.39500
O408        O  0.22816398  0.12833860  0.77123397    -0.39400
O409        O  0.28204636  0.11305575  0.62938503    -0.40100
O410        O  0.31170558  0.12547329  0.66512094    -0.40200
C411        C  0.19842541  0.16468776  0.86029557    -0.12500
C412        C  0.18760260  0.13830101  0.85044826     0.04500
C413        C  0.18395275  0.13279020  0.81936822    -0.07800
C414        C  0.19435971  0.15394084  0.79883477    -0.08500
C415        C  0.20872561  0.18045911  0.80862935    -0.03100
C416        C  0.20889576  0.18598277  0.83965486     0.03800
N417        N  0.22097425  0.21295293  0.85046745     0.64500
H418        H  0.20084874  0.16883529  0.88422366     0.15200
H419        H  0.19407260  0.14963978  0.77512524     0.14900
N420        N  0.17183715  0.10607648  0.80817626     0.74000
O421        O  0.22241502  0.23098474  0.83368234    -0.39500
O422        O  0.22733614  0.21828584  0.87779141    -0.39400
O423        O  0.15415217  0.09820646  0.78803460    -0.40100
O424        O  0.18134413  0.09166244  0.81512451    -0.40200
C425        C  0.18549235  0.03888197  0.82748474    -0.12500
C426        C  0.19785178  0.04228621  0.85550603     0.04500
C427        C  0.21529292  0.03222400  0.85928624    -0.07800
C428        C  0.22192503  0.02151419  0.83464872    -0.08500
C429        C  0.21267997  0.02184449  0.80574793    -0.03100
C430        C  0.19330667  0.02951839  0.80228635     0.03800
N431        N  0.18275734  0.02943137  0.77310306     0.66300
H432        H  0.17134006  0.04553108  0.82459225     0.15200
H433        H  0.25294136  0.52704980  0.85092786     0.14900
N434        N  0.22819791  0.03465204  0.88740248     0.74000
O435        O  0.17885265  0.01171068  0.75403921    -0.39500
O436        O  0.17620033  0.04636319  0.76669607    -0.39400
O437        O  0.22716650  0.53110583  0.92298626    -0.40100
O438        O  0.26655497  0.55848286  0.90343316    -0.40200
C439        C  0.31067950  0.22315616  0.91929016    -0.12500
C440        C  0.32184606  0.23135347  0.94794918     0.04500
C441        C  0.30586019  0.21891754  0.97343915    -0.07800
C442        C  0.28032689  0.19617023  0.96974592    -0.08500
C443        C  0.27073483  0.18555355  0.94086854    -0.03100
C444        C  0.28554639  0.20041782  0.91536640     0.03800
N445        N  0.27721350  0.19126739  0.88525339     0.66300
H446        H  0.32261057  0.23313731  0.89948113     0.15200
H447        H  0.26905711  0.18552468  0.98961120     0.14900
N448        N  0.31630257  0.22732364  0.00301506     0.74000
O449        O  0.27140816  0.20465994  0.86805871    -0.39500
O450        O  0.28261041  0.17468434  0.87385277    -0.39400
O451        O  0.31144726  0.24314788  0.01729635    -0.40100
O452        O  0.32719396  0.21628663  0.01630758    -0.40200
C453        C  0.33421437  0.29206614  0.86015091    -0.12500
C454        C  0.35993220  0.29693024  0.85255108     0.04500
C455        C  0.36594488  0.29488693  0.82229614    -0.07800
C456        C  0.34591696  0.28644892  0.80062243    -0.08500
C457        C  0.31936313  0.27859917  0.80855150    -0.03100
C458        C  0.31383510  0.28335603  0.83830105     0.03800
N459        N  0.28765937  0.27820889  0.84703190     0.66300
H460        H  0.32964622  0.29374834  0.88346441     0.15200
H461        H  0.35044292  0.28297135  0.77789825     0.14900
N462        N  0.39115908  0.29780928  0.81372966     0.74000
O463        O  0.27918917  0.27090859  0.87355080    -0.39500
O464        O  0.27527746  0.28568920  0.83031539    -0.39400
O465        O  0.40392453  0.31248553  0.79168455    -0.40100
O466        O  0.39723207  0.28124305  0.82315444    -0.40200
C467        C  0.36661886  0.11197378  0.68834236    -0.12500
C468        C  0.35413074  0.10243947  0.71655371     0.04500
C469        C  0.36869195  0.11521509  0.74293784    -0.07800
C470        C  0.39408468  0.13765982  0.74055137    -0.08500
C471        C  0.40486422  0.14926209  0.71259673    -0.03100
C472        C  0.39201572  0.13536591  0.68605168     0.03800
N473        N  0.40355474  0.14543675  0.65692112     0.66300
H474        H  0.35609248  0.10195627  0.66796990     0.15200
H475        H  0.40396946  0.14809640  0.76107511     0.14900
N476        N  0.35667717  0.10836703  0.77226651     0.74000
O477        O  0.42788197  0.15290403  0.65183165    -0.39500
O478        O  0.38868018  0.14317546  0.63515608    -0.39400
O479        O  0.36200911  0.09480775  0.78974149    -0.40100
O480        O  0.34413410  0.11926978  0.78225765    -0.40200
C481        C  0.34788067  0.21333677  0.69585813    -0.12500
C482        C  0.34673003  0.23633648  0.70139619     0.04500
C483        C  0.37074171  0.26104798  0.70499589    -0.07800
C484        C  0.39532948  0.26159380  0.70582033    -0.08500
C485        C  0.39615822  0.23817178  0.70186049    -0.03100
C486        C  0.37228528  0.21406247  0.69567576     0.03800
N487        N  0.37217186  0.18963759  0.69223833     0.66300
H488        H  0.32944075  0.19429761  0.69332783     0.15200
H489        H  0.41377120  0.28017034  0.71015565     0.14900
N490        N  0.37034044  0.28521094  0.70944362     0.74000
O491        O  0.38089683  0.18514494  0.66815921    -0.39500
O492        O  0.35935599  0.17096519  0.71078108    -0.39400
O493        O  0.38697887  0.30303734  0.72688929    -0.40100
O494        O  0.35588131  0.29031340  0.69302063    -0.40200
C495        C  0.49121744  0.29237501  0.83510510    -0.12500
C496        C  0.48192323  0.29219225  0.80603114     0.04500
C497        C  0.46721077  0.30492193  0.80115250    -0.07800
C498        C  0.45961087  0.31495682  0.82561955    -0.08500
C499        C  0.46534600  0.31143339  0.85518620    -0.03100
C500        C  0.48283099  0.30160427  0.85991425     0.03800
N501        N  0.98738981  0.29363431  0.89104829     0.66300
H502        H  0.00196693  0.28044652  0.83939364     0.15200
H503        H  0.44665766  0.32292148  0.82179080     0.14900
N504        N  0.45695666  0.30471361  0.77199002     0.74000
O505        O  0.99601381  0.27794539  0.89514046    -0.39500
O506        O  0.98570026  0.30619225  0.91337124    -0.39400
O507        O  0.43247123  0.28895568  0.76637441    -0.40100
O508        O  0.47220158  0.32067669  0.75202943    -0.40200
C509        C  0.27729852  0.07610886  0.96247938    -0.12500
C510        C  0.27909755  0.10039589  0.95569165     0.04500
C511        C  0.30447806  0.12329827  0.95089545    -0.07800
C512        C  0.32732229  0.12132345  0.95074463    -0.08500
C513        C  0.32554212  0.09691678  0.95552984    -0.03100
C514        C  0.30055202  0.07408940  0.96264362     0.03800
N515        N  0.29837244  0.04893175  0.96892987     0.66300
H516        H  0.25773274  0.05856539  0.96619314     0.15200
H517        H  0.34661808  0.13890662  0.94576739     0.14900
N518        N  0.30726078  0.14868903  0.94550415     0.74000
O519        O  0.31730486  0.04806667  0.98165523    -0.39500
O520        O  0.27669240  0.02742778  0.96392978    -0.39400
O521        O  0.30453523  0.16119487  0.96713816    -0.40100
O522        O  0.31698803  0.16049269  0.92087016    -0.40200
C523        C  0.35808387  0.04141599  0.82521032    -0.12500
C524        C  0.35230652  0.04603324  0.85465474     0.04500
C525        C  0.32551951  0.03825988  0.86225571    -0.07800
C526        C  0.30589850  0.02885516  0.83970929    -0.08500
C527        C  0.31203549  0.02629804  0.80973463    -0.03100
C528        C  0.33819350  0.03154448  0.80265091     0.03800
N529        N  0.34567140  0.02952474  0.77232659     0.66300
H530        H  0.37865249  0.04780025  0.81904007     0.15200
H531        H  0.28414227  0.50882542  0.83894770     0.14900
N532        N  0.31833645  0.04130990  0.89244848     0.74000
O533        O  0.34207374  0.04180208  0.75135992    -0.39500
O534        O  0.35897020  0.01826703  0.76708254    -0.39400
O535        O  0.29986412  0.04638835  0.89707822    -0.40100
O536        O  0.31719204  0.51380810  0.91413642    -0.40200
C537        C  0.43865239  0.22643180  0.94383788    -0.12500
C538        C  0.42104637  0.22952578  0.96301878     0.04500
C539        C  0.40614023  0.20961452  0.98476356    -0.07800
C540        C  0.40670411  0.18584457  0.98419961    -0.08500
C541        C  0.42204705  0.18179976  0.96258334    -0.03100
C542        C  0.43898868  0.20274753  0.94322893     0.03800
N543        N  0.45430712  0.19910616  0.92041524     0.66300
H544        H  0.45053583  0.24155817  0.92727178     0.15200
H545        H  0.39326631  0.16960737  0.99887297     0.14900
N546        N  0.38817377  0.21186398  0.00522512     0.74000
O547        O  0.44711213  0.19696699  0.89334221    -0.39500
O548        O  0.47759441  0.20384452  0.92641741    -0.39400
O549        O  0.36351951  0.19434686  0.00531103    -0.40100
O550        O  0.39746367  0.22901767  0.02599704    -0.40200
C551        C  0.47587101  0.17281951  0.85803729    -0.12500
C552        C  0.45779364  0.14601489  0.85090101     0.04500
C553        C  0.45097306  0.13901394  0.82053505    -0.07800
C554        C  0.45857639  0.15921027  0.79901193    -0.08500
C555        C  0.47362981  0.18630961  0.80700178    -0.03100
C556        C  0.48364808  0.19312414  0.83655229     0.03800
N557        N  0.99682464  0.22033142  0.84563155     0.66300
H558        H  0.48137427  0.17825163  0.88127147     0.15200
H559        H  0.45142691  0.15376217  0.77614290     0.14900
N560        N  0.43440350  0.11165660  0.81181674     0.74000
O561        O  0.98444519  0.23288007  0.84544651    -0.39500
O562        O  0.01844004  0.22965250  0.86011367    -0.39400
O563        O  0.41594309  0.10496643  0.79285986    -0.40100
O564        O  0.44017689  0.09464384  0.82039979    -0.40200
C565        C  0.35900081  0.50197198  0.96964798    -0.12500
C566        C  0.37579654  0.02299399  0.98260706     0.04500
C567        C  0.38109754  0.02223237  0.01337166    -0.07800
C568        C  0.37019773  0.99772429  0.02824304    -0.08500
C569        C  0.35332506  0.47365030  0.01253017    -0.03100
C570        C  0.34582422  0.47682681  0.98334973     0.03800
N571        N  0.32489260  0.45481626  0.96734124     0.66300
H572        H  0.35295456  0.50425916  0.94740426     0.15200
H573        H  0.37444602  0.99753532  0.05190518     0.14900
N574        N  0.39762661  0.04624810  0.02978685     0.74000
O575        O  0.30094310  0.44941908  0.97044349    -0.39500
O576        O  0.33078575  0.44396071  0.94641002    -0.39400
O577        O  0.38788283  0.06001495  0.03911749    -0.40100
O578        O  0.42026978  0.05130610  0.03911267    -0.40200
C579        C  0.35496687  0.37203474  0.98386453    -0.12500
C580        C  0.35712570  0.37483562  0.01541910     0.04500
C581        C  0.37182062  0.36522890  0.03059506    -0.07800
C582        C  0.38304125  0.35250749  0.01449061    -0.08500
C583        C  0.38057389  0.34935485  0.98306932    -0.03100
C584        C  0.36665251  0.35966039  0.96768876     0.03800
N585        N  0.36322766  0.35677999  0.93583276     0.66300
H586        H  0.34394523  0.37931955  0.97159025     0.15200
H587        H  0.39384049  0.34501291  0.02684952     0.14900
N588        N  0.37490374  0.36740832  0.06252709     0.74000
O589        O  0.34361734  0.33601883  0.92491873    -0.39500
O590        O  0.37845645  0.37587065  0.91875166    -0.39400
O591        O  0.36128211  0.34712445  0.07873043    -0.40100
O592        O  0.39438226  0.38802985  0.07386468    -0.40200
C593        C  0.31632387  0.33222589  0.13661501    -0.12500
C594        C  0.32262805  0.35779020  0.14599343     0.04500
C595        C  0.32299693  0.36301444  0.17697102    -0.07800
C596        C  0.31296338  0.34194139  0.19739605    -0.08500
C597        C  0.30183093  0.31561281  0.18727809    -0.03100
C598        C  0.30641586  0.31109444  0.15727816     0.03800
N599        N  0.29833356  0.28484170  0.14696569     0.66300
H600        H  0.31633707  0.32804452  0.11283884     0.15200
H601        H  0.30998510  0.34571168  0.22062919     0.14900
N602        N  0.32863152  0.38843959  0.18760567     0.74000
O603        O  0.28214329  0.27473036  0.12540160    -0.39500
O604        O  0.31060224  0.27357571  0.15615484    -0.39400
O605        O  0.31092329  0.39477189  0.18507321    -0.40100
O606        O  0.34753927  0.40095924  0.20597474    -0.40200
C607        C  0.02687692  0.15164440  0.98102204    -0.12500
C608        C  0.02677373  0.14605451  0.01185689     0.04500
C609        C  0.00225904  0.12666346  0.02526384    -0.07800
C610        C  0.47869128  0.11588059  0.01204179    -0.08500
C611        C  0.47911780  0.12005219  0.98085916    -0.03100
C612        C  0.00324363  0.13900918  0.96398940     0.03800
N613        N  0.00420217  0.14653622  0.93329022     0.66300
H614        H  0.04533963  0.16628019  0.97004555     0.15200
H615        H  0.45975691  0.10320742  0.02348073     0.14900
N616        N  0.50018735  0.12255357  0.06069629     0.74000
O617        O  0.00062513  0.16548396  0.92683833    -0.39500
O618        O  0.51767682  0.13487984  0.91739236    -0.39400
O619        O  0.98797197  0.12510911  0.07479537    -0.40100
O620        O  0.50770455  0.10732606  0.07091887    -0.40200
C621        C  0.15557234  0.16599412  0.00232710    -0.12500
C622        C  0.12810816  0.15145197  0.00925746     0.04500
C623        C  0.11287381  0.12448280  0.00032318    -0.07800
C624        C  0.12545171  0.11241586  0.98538480    -0.08500
C625        C  0.15312973  0.12685890  0.97907228    -0.03100
C626        C  0.16814948  0.15411559  0.98730846     0.03800
N627        N  0.19616317  0.17019674  0.98013537     0.66300
H628        H  0.16745405  0.18676681  0.00880424     0.15200
H629        H  0.11361292  0.09160586  0.97909854     0.14900
N630        N  0.08451187  0.10935049  0.00552765     0.74000
O631        O  0.20382886  0.17408538  0.95300601    -0.39500
O632        O  0.21296863  0.18246643  0.00071064    -0.39400
O633        O  0.06903766  0.11386492  0.99020007    -0.40100
O634        O  0.07476915  0.09036882  0.02406838    -0.40200
C635        C  0.22186450  0.30568332  0.03056540    -0.12500
C636        C  0.23566987  0.31640844  0.05752257     0.04500
C637        C  0.22565216  0.30138638  0.08422549    -0.07800
C638        C  0.20147363  0.27714281  0.08403390    -0.08500
C639        C  0.18631404  0.26732502  0.05771746    -0.03100
C640        C  0.19732204  0.28130210  0.03040855     0.03800
N641        N  0.18324986  0.27182543  0.00265479     0.66300
H642        H  0.22922974  0.31701276  0.00992128     0.15200
H643        H  0.19393123  0.26668544  0.10518260     0.14900
N644        N  0.23942957  0.31095218  0.11212472     0.74000
O645        O  0.17291322  0.28391300  0.99050856    -0.39500
O646        O  0.18288307  0.25258384  0.98914125    -0.39400
O647        O  0.22826530  0.31566445  0.13385583    -0.40100
O648        O  0.26035076  0.31000170  0.11666836    -0.40200
C649        C  0.17178714  0.19595469  0.12969526    -0.12500
C650        C  0.14599207  0.18403991  0.14252480     0.04500
C651        C  0.14335584  0.18254766  0.17411900    -0.07800
C652        C  0.16636089  0.19465919  0.19222088    -0.08500
C653        C  0.19216644  0.20866292  0.17934891    -0.03100
C654        C  0.19490041  0.20848816  0.14774887     0.03800
N655        N  0.22091740  0.22244614  0.13372365     0.66300
H656        H  0.17398159  0.19772010  0.10543176     0.15200
H657        H  0.16396329  0.19528586  0.21637402     0.14900
N658        N  0.11741720  0.17099512  0.18799952     0.74000
O659        O  0.24007345  0.22068277  0.14437616    -0.39500
O660        O  0.22431469  0.23481931  0.10937253    -0.39400
O661        O  0.10215521  0.14603393  0.18834774    -0.40100
O662        O  0.11074485  0.18548466  0.20228871    -0.40200
C663        C  0.11782760  0.25495074  0.29164886    -0.12500
C664        C  0.10536104  0.25355521  0.26424625     0.04500
C665        C  0.11572984  0.24888589  0.23745340    -0.07800
C666        C  0.13870512  0.24695155  0.23839393    -0.08500
C667        C  0.15286369  0.25102467  0.26524941    -0.03100
C668        C  0.14158749  0.25398913  0.29237286     0.03800
N669        N  0.15465378  0.25745252  0.32056205     0.66300
H670        H  0.11004269  0.25841424  0.31236127     0.15200
H671        H  0.14662377  0.24437732  0.21726759     0.14900
N672        N  0.10435240  0.24781472  0.20864904     0.74000
O673        O  0.16504550  0.27959015  0.33398284    -0.39500
O674        O  0.15377197  0.23778267  0.33328734    -0.39400
O675        O  0.11222735  0.26921381  0.19443889    -0.40100
O676        O  0.09310160  0.22612925  0.19430449    -0.40200
C677        C  0.03950836  0.17624708  0.17052315    -0.12500
C678        C  0.03879068  0.18143667  0.13993719     0.04500
C679        C  0.02185318  0.19093103  0.13057143    -0.07800
C680        C  0.01093111  0.20039568  0.15232828    -0.08500
C681        C  0.01671187  0.20043572  0.18283367    -0.03100
C682        C  0.02842932  0.18557878  0.19211691     0.03800
N683        N  0.03104043  0.18158578  0.22338436     0.66300
H684        H  0.05156943  0.16804203  0.17793602     0.15200
H685        H  0.00103984  0.21089549  0.14505095     0.14900
N686        N  0.01654020  0.19236211  0.09929578     0.74000
O687        O  0.04697733  0.20083466  0.23979919    -0.39500
O688        O  0.02002135  0.15822503  0.23365470    -0.39400
O689        O  0.99315808  0.18601965  0.09125927    -0.40100
O690        O  0.03504191  0.20086958  0.07976690    -0.40200
C691        C  0.00752215  0.36366460  0.03324442    -0.12500
C692        C  0.03122276  0.37568523  0.01602921     0.04500
C693        C  0.02959558  0.37439001  0.98434556    -0.07800
C694        C  0.00426738  0.36052437  0.97060513    -0.08500
C695        C  0.48018149  0.34793864  0.98706840    -0.03100
C696        C  0.48206112  0.35021767  0.01863174     0.03800
N697        N  0.45849604  0.33854904  0.03718247     0.66300
H698        H  0.00853712  0.36499863  0.05755046     0.15200
H699        H  0.00303309  0.35980326  0.94627030     0.14900
N700        N  0.05332142  0.38787602  0.96596452     0.74000
O701        O  0.45000596  0.31586610  0.04855254    -0.39500
O702        O  0.44824725  0.35218435  0.04525693    -0.39400
O703        O  0.05587608  0.37657536  0.94294201    -0.40100
O704        O  0.07049232  0.41200629  0.97096232    -0.40200
C705        C  0.12952737  0.47831297  0.99186833    -0.12500
C706        C  0.13063937  0.47772399  0.02345396     0.04500
C707        C  0.14334068  0.50220065  0.03920229    -0.07800
C708        C  0.15362466  0.02599559  0.01838589    -0.08500
C709        C  0.15557616  0.02520636  0.98680010    -0.03100
C710        C  0.14583646  0.00018308  0.97272808     0.03800
N711        N  0.14861783  0.99804135  0.94093256     0.66300
H712        H  0.11985661  0.45984339  0.97924781     0.15200
H713        H  0.16099572  0.04492060  0.02973870     0.14900
N714        N  0.14576229  0.50310585  0.07124929     0.74000
O715        O  0.15810841  0.50271531  0.92832250    -0.39500
O716        O  0.12855492  0.98188513  0.92558044    -0.39400
O717        O  0.16875022  0.51335792  0.08287213    -0.40100
O718        O  0.12599552  0.49893070  0.08750226    -0.40200
C719        C  0.09554036  0.28334287  0.02876328    -0.12500
C720        C  0.09064882  0.26852337  0.05524355     0.04500
C721        C  0.08381506  0.27720872  0.08183279    -0.07800
C722        C  0.08325300  0.30072825  0.08185241    -0.08500
C723        C  0.09061048  0.31704593  0.05630982    -0.03100
C724        C  0.09601521  0.30771633  0.02917294     0.03800
N725        N  0.10371481  0.32340620  0.00242143     0.66300
H726        H  0.10112292  0.27711446  0.00830038     0.15200
H727        H  0.07881122  0.30707726  0.10299207     0.14900
N728        N  0.07887155  0.26331422  0.10973646     0.74000
O729        O  0.12811142  0.34058308  0.99784667    -0.39500
O730        O  0.08704543  0.31718848  0.98140130    -0.39400
O731        O  0.09848533  0.26893124  0.12661317    -0.40100
O732        O  0.05568454  0.25272320  0.12126159    -0.40200
C733        C  0.03834918  0.35359125  0.17469492    -0.12500
C734        C  0.03960341  0.35057425  0.14348256     0.04500
C735        C  0.02612765  0.32464843  0.13102009    -0.07800
C736        C  0.01455329  0.30248163  0.15021189    -0.08500
C737        C  0.01546586  0.30554970  0.18153168    -0.03100
C738        C  0.02592544  0.33131431  0.19383124     0.03800
N739        N  0.02696212  0.33524462  0.22580918     0.66300
H740        H  0.04893920  0.37338215  0.18442097     0.15200
H741        H  0.50778717  0.28447595  0.14179487     0.14900
N742        N  0.02646766  0.32056452  0.09918039     0.74000
O743        O  0.04803933  0.35350493  0.23794582    -0.39500
O744        O  0.00606020  0.32203569  0.24165298    -0.39400
O745        O  0.02870879  0.30154621  0.08907611    -0.40100
O746        O  0.52329284  0.33574613  0.08132366    -0.40200
C747        C  0.19860021  0.41105132  0.03313112    -0.12500
C748        C  0.18724033  0.41264059  0.06051019     0.04500
C749        C  0.20150090  0.41611466  0.08737070    -0.07800
C750        C  0.22566070  0.41637979  0.08671377    -0.08500
C751        C  0.23590471  0.41214807  0.05985577    -0.03100
C752        C  0.22255472  0.41033961  0.03258876     0.03800
N753        N  0.23203634  0.40626581  0.00442668     0.66300
H754        H  0.18775536  0.40812067  0.01237370     0.15200
H755        H  0.23551680  0.41828072  0.10796551     0.14900
N756        N  0.19100572  0.41797102  0.11593240     0.74000
O757        O  0.22568531  0.38298680  0.99655949    -0.39500
O758        O  0.24149731  0.42459958  0.98507529    -0.39400
O759        O  0.18156094  0.39846201  0.13375467    -0.40100
O760        O  0.19691292  0.44054665  0.12587795    -0.40200
C761        C  0.21665206  0.34332816  0.27860404    -0.12500
C762        C  0.24132439  0.34431907  0.27843665     0.04500
C763        C  0.26540626  0.36932651  0.27988827    -0.07800
C764        C  0.26405415  0.39282764  0.28012609    -0.08500
C765        C  0.23917611  0.39158320  0.27918006    -0.03100
C766        C  0.21533448  0.36650093  0.27915616     0.03800
N767        N  0.18954811  0.36431056  0.27951041     0.66300
H768        H  0.19811192  0.32421323  0.27751102     0.15200
H769        H  0.28242453  0.41206904  0.27968953     0.14900
N770        N  0.29112683  0.37125713  0.27896537     0.74000
O771        O  0.17151796  0.34871827  0.26152087    -0.39500
O772        O  0.18350778  0.37469425  0.30081331    -0.39400
O773        O  0.31006685  0.38918821  0.26351343    -0.40100
O774        O  0.29577065  0.35673913  0.29572365    -0.40200
C775        C  0.31557085  0.47157755  0.19537636    -0.12500
C776        C  0.29857203  0.48034600  0.18502886     0.04500
C777        C  0.29619008  0.48235974  0.15381638    -0.07800
C778        C  0.30761404  0.47213677  0.13373660    -0.08500
C779        C  0.32214218  0.46059695  0.14424864    -0.03100
C780        C  0.32794413  0.46219082  0.17532063     0.03800
N781        N  0.34511271  0.45318660  0.18688240     0.66300
H782        H  0.31755344  0.47024430  0.21942063     0.15200
H783        H  0.30293233  0.47090450  0.11000853     0.14900
N784        N  0.27950553  0.49169720  0.14239977     0.74000
O785        O  0.36132432  0.45094099  0.16966964    -0.39500
O786        O  0.34618295  0.45009457  0.21482735    -0.39400
O787        O  0.28685644  0.51600595  0.14482235    -0.40100
O788        O  0.25900672  0.47639716  0.12713739    -0.40200
C789        C  0.14036004  0.38642912  0.23576139    -0.12500
C790        C  0.15132961  0.39810410  0.26376738     0.04500
C791        C  0.13674978  0.38526157  0.29020350    -0.07800
C792        C  0.11321578  0.36000357  0.28804809    -0.08500
C793        C  0.10347320  0.34758965  0.25999331    -0.03100
C794        C  0.11708504  0.36151246  0.23361584     0.03800
N795        N  0.10937508  0.34953239  0.20447930     0.66300
H796        H  0.15094367  0.39572473  0.21503736     0.15200
H797        H  0.10265749  0.34987954  0.30845639     0.14900
N798        N  0.14555375  0.39741862  0.31921325     0.74000
O799        O  0.09367054  0.35328558  0.18862283    -0.39500
O800        O  0.12029570  0.33738048  0.19344719    -0.39400
O801        O  0.15169369  0.42127599  0.32325816    -0.40100
O802        O  0.14408725  0.38354171  0.34159434    -0.40200
C803        C  0.16759384  0.46694487  0.20047296    -0.12500
C804        C  0.19337206  0.48238180  0.18783250     0.04500
C805        C  0.19606067  0.48802784  0.15680113    -0.07800
C806        C  0.17324166  0.47463020  0.13847574    -0.08500
C807        C  0.14812920  0.45586696  0.15058398    -0.03100
C808        C  0.14488157  0.45318776  0.18211513     0.03800
N809        N  0.11952663  0.43462508  0.19572438     0.66300
H810        H  0.16554933  0.46259314  0.22435392     0.15200
H811        H  0.17553909  0.47679186  0.11426230     0.14900
N812        N  0.22356423  0.00444437  0.14516757     0.74000
O813        O  0.10635283  0.41086338  0.18655806    -0.39500
O814        O  0.11197736  0.44101131  0.21943204    -0.39400
O815        O  0.22746066  0.00312367  0.11736930    -0.40100
O816        O  0.24243810  0.02208744  0.16080556    -0.40200
C817        C  0.31942625  0.35285670  0.68122253    -0.12500
C818        C  0.31331136  0.35316619  0.65065785     0.04500
C819        C  0.29486068  0.32881255  0.63675720    -0.07800
C820        C  0.28467620  0.30485183  0.65279632    -0.08500
C821        C  0.29141495  0.30450776  0.68307038    -0.03100
C822        C  0.30850653  0.32898139  0.69752132     0.03800
N823        N  0.31588509  0.32992515  0.72833811     0.66300
H824        H  0.33325471  0.37133559  0.69248513     0.15200
H825        H  0.27098851  0.28631780  0.64154535     0.14900
N826        N  0.28655832  0.32787216  0.60632341     0.74000
O827        O  0.33065400  0.32089628  0.73593551    -0.39500
O828        O  0.30916600  0.34142432  0.74764753    -0.39400
O829        O  0.28912937  0.31304918  0.58749703    -0.40100
O830        O  0.27150076  0.33691167  0.60012118    -0.40200
C831        C  0.31108419  0.45247465  0.67830804    -0.12500
C832        C  0.31062220  0.45116110  0.64668292     0.04500
C833        C  0.29723431  0.46196620  0.63105246    -0.07800
C834        C  0.28581519  0.47466262  0.64699103    -0.08500
C835        C  0.28674111  0.47639006  0.67859549    -0.03100
C836        C  0.29917362  0.46461013  0.69425003     0.03800
N837        N  0.30107823  0.46585723  0.72632361     0.66300
H838        H  0.32098418  0.44417365  0.69095457     0.15200
H839        H  0.30673584  0.00561177  0.63546045     0.14900
N840        N  0.29572870  0.46100810  0.59896099     0.74000
O841        O  0.28232173  0.44805178  0.74206777    -0.39500
O842        O  0.32293407  0.48240677  0.73861736    -0.39400
O843        O  0.31583087  0.98629277  0.58113885    -0.40100
O844        O  0.35560730  0.99655654  0.59673182    -0.40200
C845        C  0.33829136  0.30224476  0.35585074    -0.12500
C846        C  0.36253460  0.31713752  0.33981038     0.04500
C847        C  0.36138174  0.31873911  0.30807225    -0.07800
C848        C  0.33655121  0.30543874  0.29336354    -0.08500
C849        C  0.31241565  0.29085973  0.30952791    -0.03100
C850        C  0.31348755  0.28923112  0.34110786     0.03800
N851        N  0.28963683  0.27341674  0.35845000     0.66300
H852        H  0.33848638  0.30051202  0.38008857     0.15200
H853        H  0.33613185  0.30719072  0.26913805     0.14900
N854        N  0.38510851  0.33404522  0.29031704     0.74000
O855        O  0.27900010  0.24844253  0.35866756    -0.39500
O856        O  0.28151025  0.28444545  0.37672285    -0.39400
O857        O  0.39426069  0.32238663  0.27454387    -0.40100
O858        O  0.39419935  0.35859677  0.28657872    -0.40200
C859        C  0.44993495  0.29045166  0.33866435    -0.12500
C860        C  0.46525600  0.31810591  0.34354868     0.04500
C861        C  0.49256362  0.33192545  0.33422396    -0.07800
C862        C  0.50381055  0.31809166  0.32079971    -0.08500
C863        C  0.48835528  0.29073079  0.31511059    -0.03100
C864        C  0.46113485  0.27671312  0.32437800     0.03800
N865        N  0.44483969  0.24851172  0.32012397     0.66300
H866        H  0.42906222  0.27946210  0.34572510     0.15200
H867        H  0.02432691  0.32798689  0.31383977     0.14900
N868        N  0.00940416  0.35859869  0.33991856     0.74000
O869        O  0.45216308  0.23323484  0.33068607    -0.39500
O870        O  0.42218647  0.23868634  0.30776250    -0.39400
O871        O  0.03126523  0.36713500  0.35370764    -0.40100
O872        O  0.00643116  0.37445385  0.32356482    -0.40200
C873        C  0.37826530  0.35121861  0.49906048    -0.12500
C874        C  0.37800447  0.35851854  0.46909458     0.04500
C875        C  0.36267001  0.37039500  0.46181308    -0.07800
C876        C  0.35181710  0.37843583  0.48530114    -0.08500
C877        C  0.35516800  0.37433939  0.51555470    -0.03100
C878        C  0.36645417  0.35849425  0.52234740     0.03800
N879        N  0.36693246  0.35059216  0.55276338     0.66300
H880        H  0.38927082  0.34140613  0.50458896     0.15200
H881        H  0.34180712  0.38921573  0.48014309     0.14900
N882        N  0.35878877  0.37526536  0.43097877     0.74000
O883        O  0.38513243  0.34626570  0.56109508    -0.39500
O884        O  0.34686611  0.34367487  0.56977564    -0.39400
O885        O  0.36161602  0.36243701  0.40971701    -0.40100
O886        O  0.34959592  0.39020540  0.42507362    -0.40200
C887        C  0.21627419  0.19260387  0.34179287    -0.12500
C888        C  0.21016766  0.19189722  0.31131441     0.04500
C889        C  0.19279595  0.16730878  0.29754064    -0.07800
C890        C  0.18208974  0.14376575  0.31432546    -0.08500
C891        C  0.18872844  0.14417549  0.34482990    -0.03100
C892        C  0.20610159  0.16913884  0.35853456     0.03800
N893        N  0.21377022  0.17117486  0.38935113     0.66300
H894        H  0.22918488  0.21153678  0.35266491     0.15200
H895        H  0.16853086  0.12507598  0.30329810     0.14900
N896        N  0.18486499  0.16609119  0.26694319     0.74000
O897        O  0.23617326  0.17383245  0.39585420    -0.39500
O898        O  0.20026610  0.17450249  0.40950306    -0.39400
O899        O  0.20063268  0.16831224  0.24587560    -0.40100
O900        O  0.16107190  0.15982139  0.26101147    -0.40200
C901        C  0.18762600  0.00149073  0.33111449    -0.12500
C902        C  0.21368711  0.01615386  0.31900488     0.04500
C903        C  0.22833343  0.04410702  0.32337076    -0.07800
C904        C  0.21681408  0.05662327  0.33963972    -0.08500
C905        C  0.19052108  0.04185842  0.35109284    -0.03100
C906        C  0.17597627  0.01397462  0.34674895     0.03800
N907        N  0.14928554  0.99792263  0.35837829     0.66300
H908        H  0.17546192  0.47920586  0.32677897     0.15200
H909        H  0.22810398  0.07806276  0.34236205     0.14900
N910        N  0.25483257  0.06011078  0.31132490     0.74000
O911        O  0.12893042  0.48414046  0.34152633    -0.39500
O912        O  0.14568467  0.99195881  0.38591648    -0.39400
O913        O  0.25818932  0.07082526  0.28585686    -0.40100
O914        O  0.27493394  0.06577678  0.32735478    -0.40200
C915        C  0.06352104  0.46967174  0.37163045    -0.12500
C916        C  0.07315133  0.48241115  0.39946430     0.04500
C917        C  0.05979037  0.46858885  0.42607749    -0.07800
C918        C  0.03628067  0.44387604  0.42402603    -0.08500
C919        C  0.02449991  0.43286907  0.39610639    -0.03100
C920        C  0.03910017  0.44542026  0.36955171     0.03800
N921        N  0.02943329  0.43457086  0.34028648     0.66300
H922        H  0.07391724  0.47956757  0.35105089     0.15200
H923        H  0.02593787  0.43451263  0.44483771     0.14900
N924        N  0.07063616  0.98060517  0.45002458     0.74000
O925        O  0.01056894  0.43648108  0.32904490    -0.39500
O926        O  0.04430785  0.43040011  0.32296943    -0.39400
O927        O  0.06446928  0.99705092  0.46010561    -0.40100
O928        O  0.07719143  0.96856193  0.46836846    -0.40200
C929        C  0.01419543  0.34109225  0.64371442    -0.12500
C930        C  0.04221646  0.35639072  0.64136998     0.04500
C931        C  0.05787686  0.34683162  0.65424102    -0.07800
C932        C  0.04518289  0.32249275  0.66985374    -0.08500
C933        C  0.01705751  0.30734919  0.67270142    -0.03100
C934        C  0.00148176  0.31675334  0.65893470     0.03800
N935        N  0.97272943  0.30220909  0.66068141     0.66300
H936        H  0.00200456  0.34817668  0.63368485     0.15200
H937        H  0.54369308  0.32899590  0.70958840     0.14900
N938        N  0.08662019  0.36194237  0.65246708     0.74000
O939        O  0.96110317  0.29859959  0.68584142    -0.39500
O940        O  0.95905876  0.29600088  0.63689943    -0.39400
O941        O  0.56340599  0.38464329  0.71069973    -0.40100
O942        O  0.59427179  0.39163366  0.67737802    -0.40200
C943        C  0.16736308  0.46790652  0.63212093    -0.12500
C944        C  0.14232412  0.45792657  0.64652064     0.04500
C945        C  0.14187787  0.45992069  0.67840333    -0.07800
C946        C  0.16600736  0.47164609  0.69480738    -0.08500
C947        C  0.19087422  0.48209253  0.68010034    -0.03100
C948        C  0.19134754  0.47986465  0.64849375     0.03800
N949        N  0.21970655  0.98626842  0.62286430     0.66300
H950        H  0.16844580  0.46644737  0.60789064     0.15200
H951        H  0.16535097  0.47341343  0.71904446     0.14900
N952        N  0.11719449  0.45043717  0.69456717     0.74000
O953        O  0.23361117  0.97561789  0.62742944    -0.39500
O954        O  0.22537944  0.00184215  0.60085866    -0.39400
O955        O  0.10787594  0.42953725  0.71012338    -0.40100
O956        O  0.10717779  0.46511908  0.69725628    -0.40200
C957        C  0.47712097  0.42637932  0.63498709    -0.12500
C958        C  0.48260061  0.41485865  0.61005790     0.04500
C959        C  0.46255263  0.40177670  0.58802220    -0.07800
C960        C  0.43866879  0.40202527  0.59029581    -0.08500
C961        C  0.43409048  0.41546033  0.61373760    -0.03100
C962        C  0.45315333  0.42685645  0.63699634     0.03800
N963        N  0.44974707  0.44113991  0.66120131     0.66300
H964        H  0.98642386  0.42326677  0.64214439     0.15200
H965        H  0.42442148  0.39326107  0.57212481     0.14900
N966        N  0.46630583  0.38909622  0.56235264     0.74000
O967        O  0.46554414  0.46592404  0.66370718    -0.39500
O968        O  0.43268336  0.42864880  0.68168271    -0.39400
O969        O  0.45123342  0.36425142  0.55941839    -0.40100
O970        O  0.47806914  0.40286513  0.53935578    -0.40200
C971        C  0.14580655  0.50825850  0.53017674    -0.12500
C972        C  0.13225368  0.48253432  0.51757935     0.04500
C973        C  0.13356027  0.47970249  0.48612039    -0.07800
C974        C  0.14637968  0.00466307  0.46628689    -0.08500
C975        C  0.15417771  0.02973372  0.47870703    -0.03100
C976        C  0.15443796  0.03248317  0.51015134     0.03800
N977        N  0.16372049  0.05795357  0.52377938     0.66300
H978        H  0.14503641  0.51070530  0.55429995     0.15200
H979        H  0.14656719  0.00260860  0.44211664     0.14900
N980        N  0.12147284  0.45380146  0.47239114     0.74000
O981        O  0.14897431  0.06804806  0.52417195    -0.39500
O982        O  0.18525301  0.06884369  0.53856828    -0.39400
O983        O  0.11091921  0.44981945  0.44672156    -0.40100
O984        O  0.12389639  0.43562800  0.48438007    -0.40200
C985        C  0.03096629  0.37445610  0.47967402    -0.12500
C986        C  0.02791933  0.37159232  0.51098418     0.04500
C987        C  0.00207922  0.35428093  0.52306088    -0.07800
C988        C  0.47845485  0.34996599  0.49955117    -0.08500
C989        C  0.48342666  0.35795868  0.46933196    -0.03100
C990        C  0.51043070  0.37341728  0.45926078     0.03800
N991        N  0.51709844  0.37815222  0.42765328     0.66300
H992        H  0.05080775  0.38759541  0.47037011     0.15200
H993        H  0.45788513  0.33745755  0.50718112     0.14900
N994        N  0.99836223  0.34948834  0.55484423     0.74000
O995        O  0.03410719  0.38539598  0.41795588    -0.39500
O996        O  0.50047417  0.36328434  0.40805680    -0.39400
O997        O  0.97926147  0.34971515  0.56847923    -0.40100
O998        O  0.01260967  0.34247021  0.56879861    -0.40200
C999        C  0.15169363  0.16201159  0.66566385    -0.12500
C1000       C  0.14214754  0.17764470  0.65340447     0.04500
C1001       C  0.15723949  0.20560925  0.65729637    -0.07800
C1002       C  0.18138821  0.21728616  0.67318680    -0.08500
C1003       C  0.19104490  0.20156919  0.68468917    -0.03100
C1004       C  0.17599355  0.17374092  0.68099736     0.03800
N1005       N  0.18489986  0.15710733  0.69342011     0.66300
H1006       H  0.14045270  0.14056303  0.66300801     0.15200
H1007       H  0.19310622  0.23875217  0.67557632     0.14900
N1008       N  0.14849656  0.22244587  0.64508469     0.74000
O1009       O  0.18099136  0.15121494  0.72095744    -0.39500
O1010       O  0.19319340  0.14546102  0.67631059    -0.39400
O1011       O  0.13402457  0.22840976  0.66073439    -0.40100
O1012       O  0.15775785  0.23377865  0.62012617    -0.40200
C1013       C  0.03863810  0.19815291  0.63448432    -0.12500
C1014       C  0.04408970  0.18089041  0.65068017     0.04500
C1015       C  0.03894753  0.17818598  0.68207514    -0.07800
C1016       C  0.02884592  0.19278760  0.69637617    -0.08500
C1017       C  0.02303051  0.20960868  0.67992370    -0.03100
C1018       C  0.02838157  0.21253620  0.64868013     0.03800
N1019       N  0.02398974  0.23043253  0.63109224     0.66300
H1020       H  0.04257762  0.20078480  0.61049728     0.15200
H1021       H  0.52462147  0.18963964  0.72164186     0.14900
N1022       N  0.04321123  0.16031971  0.69972501     0.74000
O1023       O  0.03505614  0.25469001  0.63835867    -0.39500
O1024       O  0.01095407  0.22254641  0.60688947    -0.39400
O1025       O  0.06120141  0.16943493  0.71957349    -0.40100
O1026       O  0.52656764  0.13568074  0.70089736    -0.40200
C1027       C  0.44190499  0.02557443  0.62400626    -0.12500
C1028       C  0.44493705  0.00328373  0.62100288     0.04500
C1029       C  0.47087375  0.00678129  0.62185648    -0.07800
C1030       C  0.49320176  0.03239683  0.62365838    -0.08500
C1031       C  0.49045891  0.05487966  0.62382151    -0.03100
C1032       C  0.46452424  0.05158154  0.62533234     0.03800
N1033       N  0.46081185  0.07410809  0.62651775     0.66300
H1034       H  0.42190786  0.02276699  0.62371732     0.15200
H1035       H  0.98422709  0.05762329  0.65696765     0.14900
N1036       N  0.43323241  0.51004800  0.67443558     0.74000
O1037       O  0.43990122  0.07244173  0.61576852    -0.39500
O1038       O  0.47697658  0.09479228  0.64093855    -0.39400
O1039       O  0.41044040  0.50525177  0.68340259    -0.40100
O1040       O  0.44761825  0.50547786  0.69163397    -0.40200
C1041       C  0.08203032  0.05050792  0.57356667    -0.12500
C1042       C  0.08176444  0.06199823  0.60127907     0.04500
C1043       C  0.08207758  0.04924098  0.62809528    -0.07800
C1044       C  0.08088783  0.02457873  0.62654612    -0.08500
C1045       C  0.07881121  0.01221259  0.59869492    -0.03100
C1046       C  0.07978502  0.02571327  0.57197795     0.03800
N1047       N  0.07619532  0.01364942  0.54293343     0.66300
H1048       H  0.08170492  0.05969797  0.55259864     0.15200
H1049       H  0.07278603  0.50934344  0.65134054     0.14900
N1050       N  0.08278316  0.06058763  0.65693269     0.74000
O1051       O  0.05297714  0.00126619  0.53172961    -0.39500
O1052       O  0.09628810  0.02075233  0.52597395    -0.39400
O1053       O  0.06450502  0.04752264  0.67607490    -0.40100
O1054       O  0.10265788  0.08288659  0.66408753    -0.40200
C1055       C  0.12395791  0.15201872  0.48707733    -0.12500
C1056       C  0.12826688  0.14960431  0.51753254     0.04500
C1057       C  0.14518673  0.13974728  0.52530679    -0.07800
C1058       C  0.15531608  0.13019896  0.50258676    -0.08500
C1059       C  0.14858929  0.13011483  0.47229491    -0.03100
C1060       C  0.13396656  0.14251709  0.46450628     0.03800
N1061       N  0.12635097  0.14264278  0.43398960     0.66300
H1062       H  0.11057498  0.15904867  0.48089222     0.15200
H1063       H  0.16604342  0.12030088  0.50895131     0.14900
N1064       N  0.14915554  0.13597292  0.55621642     0.74000
O1065       O  0.10183042  0.13142545  0.42716255    -0.39500
O1066       O  0.14403548  0.15609036  0.41444331    -0.39400
O1067       O  0.14310076  0.11320833  0.56556161    -0.40100
O1068       O  0.15961335  0.15557395  0.57401033    -0.40200
C1069       C  0.49065097  0.18770991  0.34003470    -0.12500
C1070       C  0.48403705  0.18827145  0.30978391     0.04500
C1071       C  0.46542701  0.16383030  0.29574380    -0.07800
C1072       C  0.45539170  0.13975711  0.31146703    -0.08500
C1073       C  0.46238635  0.13936314  0.34149018    -0.03100
C1074       C  0.47998993  0.16369846  0.35587357     0.03800
N1075       N  0.99335105  0.16701749  0.38697882     0.66300
H1076       H  0.00933147  0.20728366  0.35030620     0.15200
H1077       H  0.44137697  0.12125400  0.30037040     0.14900
N1078       N  0.45598127  0.16295538  0.26585970     0.74000
O1079       O  0.01824086  0.17665097  0.39032222    -0.39500
O1080       O  0.48317593  0.17582674  0.40648090    -0.39400
O1081       O  0.45851844  0.14878691  0.24607489    -0.40100
O1082       O  0.44052255  0.17180145  0.26099086    -0.40200
C1083       C  0.36247429  0.03871612  0.31485101    -0.12500
C1084       C  0.36304187  0.03598825  0.34599809     0.04500
C1085       C  0.33875282  0.02074698  0.36183426    -0.07800
C1086       C  0.31419855  0.00916798  0.34644767    -0.08500
C1087       C  0.31341421  0.01248048  0.31516104    -0.03100
C1088       C  0.33815561  0.02734169  0.29933789     0.03800
N1089       N  0.33921096  0.03066239  0.26740221     0.66300
H1090       H  0.38116881  0.04998310  0.30241120     0.15200
H1091       H  0.29537125  0.49226707  0.35516345     0.14900
N1092       N  0.33795529  0.51086345  0.39009531     0.74000
O1093       O  0.33625310  0.04883578  0.25636321    -0.39500
O1094       O  0.34870055  0.01959852  0.25112993    -0.39400
O1095       O  0.33108403  0.51877790  0.41310046    -0.40100
O1096       O  0.34671981  0.49518571  0.39290850    -0.40200
C1097       C  0.43762555  0.47949695  0.34940561    -0.12500
C1098       C  0.42316511  0.48269455  0.37301084     0.04500
C1099       C  0.40800800  0.46120521  0.39261788    -0.07800
C1100       C  0.40976618  0.43833451  0.39049909    -0.08500
C1101       C  0.42588741  0.43594091  0.36857093    -0.03100
C1102       C  0.43916730  0.45627132  0.34689970     0.03800
N1103       N  0.45598327  0.45471721  0.32399454     0.66300
H1104       H  0.44297715  0.98755655  0.33708811     0.15200
H1105       H  0.39987384  0.42302071  0.40741917     0.14900
N1106       N  0.39174698  0.46283973  0.41581847     0.74000
O1107       O  0.47703420  0.47554301  0.31539715    -0.39500
O1108       O  0.44821965  0.43327733  0.30973881    -0.39400
O1109       O  0.36827530  0.45754749  0.40981906    -0.40100
O1110       O  0.39936230  0.46588682  0.44280283    -0.40200
C1111       C  0.03617053  0.15065994  0.49025835    -0.12500
C1112       C  0.02687620  0.14828103  0.51974633     0.04500
C1113       C  0.99960530  0.13975745  0.52504562    -0.07800
C1114       C  0.48126998  0.12651444  0.49622869    -0.08500
C1115       C  0.49225716  0.12581054  0.46818674    -0.03100
C1116       C  0.01810225  0.13963216  0.46650210     0.03800
N1117       N  0.53333135  0.14038334  0.43687546     0.66300
H1118       H  0.05717852  0.15736516  0.48608682     0.15200
H1119       H  0.45974284  0.11753800  0.49871195     0.14900
N1120       N  0.99004175  0.13989834  0.55483533     0.74000
O1121       O  0.04608603  0.16039969  0.42568488    -0.39500
O1122       O  0.53504228  0.12079720  0.42778070    -0.39400
O1123       O  0.98326410  0.15663755  0.56176192    -0.40100
O1124       O  0.48295773  0.11478199  0.56926594    -0.40200
C1125       C  0.36396527  0.49319965  0.46882718    -0.12500
C1126       C  0.39331400  0.02687497  0.48110051     0.04500
C1127       C  0.40410490  0.03094904  0.51019428    -0.07800
C1128       C  0.39310806  0.01020023  0.53097953    -0.08500
C1129       C  0.35956653  0.47875200  0.52094381    -0.03100
C1130       C  0.35283452  0.47267271  0.49040793     0.03800
N1131       N  0.33780528  0.44564831  0.48060353     0.66300
H1132       H  0.36123633  0.48805846  0.44524669     0.15200
H1133       H  0.40291717  0.01343615  0.55255684     0.14900
N1134       N  0.42745525  0.05559276  0.51828553     0.74000
O1135       O  0.34986390  0.43407246  0.47138623    -0.39500
O1136       O  0.31258751  0.43412062  0.47859382    -0.39400
O1137       O  0.42483562  0.07467623  0.52723316    -0.40100
O1138       O  0.44959441  0.05667356  0.52179823    -0.40200
C1139       C  0.01713665  0.04739554  0.37268589    -0.12500
C1140       C  0.01796973  0.07175053  0.37173246     0.04500
C1141       C  0.04302864  0.09566816  0.36783163    -0.07800
C1142       C  0.06679730  0.09446430  0.36856678    -0.08500
C1143       C  0.06565673  0.07007380  0.37224400    -0.03100
C1144       C  0.04057277  0.04630264  0.37247117     0.03800
N1145       N  0.03873373  0.02090017  0.37250175     0.66300
H1146       H  0.49838948  0.02811023  0.36073931     0.15200
H1147       H  0.08622542  0.11262904  0.36773314     0.14900
N1148       N  0.04493812  0.12111354  0.36486076     0.74000
O1149       O  0.02181220  0.00240121  0.38920156    -0.39500
O1150       O  0.05082958  0.01568294  0.35232174    -0.39400
O1151       O  0.06620339  0.14217036  0.37231935    -0.40100
O1152       O  0.02694187  0.12305755  0.35138938    -0.40200
O1153       O  0.39577407  0.55222263  0.43749344    -0.82000
C1154       C  0.49027107  0.56995114  0.37489049     0.97400
O1155       O  0.47910529  0.55595870  0.39791355    -0.71100
O1156       O  0.47368001  0.58301370  0.44095683    -0.74700
Al1157     Al  0.44981670  0.55028024  0.42308466     1.49000
C1158       C  0.46860258  0.59962023  0.45272366     0.92600
O1159       O  0.44459413  0.61431056  0.39169754    -0.80900
O1160       O  0.40282830  0.54511159  0.35313655    -0.74500
Al1161     Al  0.42147949  0.58222842  0.41374993     1.90100
O1162       O  0.44515885  0.59599407  0.34885985    -0.73600
O1163       O  0.43581970  0.52705959  0.35961009    -0.73400
O1164       O  0.47841799  0.57889452  0.35959659    -0.79100
O1165       O  0.42720631  0.51586377  0.40708513    -0.77300
O1166       O  0.43710951  0.56498151  0.39852847    -1.13400
O1167       O  0.42366683  0.54076678  0.45448889    -0.72600
C1168       C  0.40096402  0.53876078  0.45528052     0.98100
C1169       C  0.44993219  0.61633465  0.36385872     0.94500
Al1170     Al  0.44014151  0.56208696  0.35876871     1.55600
O1171       O  0.44659594  0.59862706  0.44728547    -0.77200
C1172       C  0.42811226  0.50965464  0.38005403     0.98700
C1173       C  0.38705949  0.55243946  0.36258708     0.93600
O1174       O  0.39368755  0.56937704  0.38361094    -0.82500
O1175       O  0.11497138  0.66316901  0.56475231    -0.82000
C1176       C  0.01379185  0.58083039  0.60725932     0.97400
O1177       O  0.02860970  0.58024373  0.58684864    -0.71100
O1178       O  0.03622009  0.61881670  0.55203252    -0.74700
Al1179     Al  0.05898913  0.60789445  0.56712689     1.49000
C1180       C  0.04376228  0.64196758  0.54301174     0.92600
O1181       O  0.06306646  0.67253820  0.60821583    -0.80900
O1182       O  0.09836327  0.63952059  0.64576909    -0.74500
Al1183     Al  0.08751103  0.66586932  0.58710054     1.90100
O1184       O  0.05544187  0.64765084  0.64803164    -0.73600
O1185       O  0.06700335  0.58979726  0.62788906    -0.73400
O1186       O  0.02372812  0.59877659  0.62716913    -0.79100
O1187       O  0.08104633  0.59551953  0.58094233    -0.77300
O1188       O  0.06951975  0.63149855  0.59645137    -1.13400
O1189       O  0.08633537  0.62878429  0.53860528    -0.72600
C1190       C  0.10993849  0.64750757  0.54282959     0.98100
C1191       C  0.05365038  0.66565259  0.63448978     0.94500
Al1192     Al  0.06189937  0.62004229  0.63432594     1.55600
O1193       O  0.06614840  0.66173004  0.55124311    -0.77200
C1194       C  0.07707735  0.58376834  0.60584471     0.98700
C1195       C  0.11542849  0.66363689  0.64072624     0.93600
O1196       O  0.11139837  0.67656197  0.62083210    -0.82500
O1197       O  0.06090157  0.88922918  0.54931420    -0.82000
C1198       C  0.07269109  0.98439389  0.59720484     0.97400
O1199       O  0.05779684  0.97011444  0.57629122    -0.71100
O1200       O  0.09079228  0.96637737  0.54013725    -0.74700
Al1201     Al  0.05679127  0.94166131  0.55489725     1.49000
C1202       C  0.10940254  0.96235515  0.53246779     0.92600
O1203       O  0.12051845  0.94052316  0.59597407    -0.80900
O1204       O  0.05001657  0.90048612  0.63146364    -0.74500
Al1205     Al  0.08987217  0.91642467  0.57302615     1.90100
O1206       O  0.10022006  0.94449658  0.63565116    -0.73600
O1207       O  0.02961709  0.93005030  0.61582999    -0.73400
O1208       O  0.08134438  0.97466118  0.61624489    -0.79100
O1209       O  0.02127295  0.91787766  0.56849159    -0.77300
O1210       O  0.07096808  0.93157794  0.58343905    -1.13400
O1211       O  0.05220196  0.91617123  0.52519888    -0.72600
C1212       C  0.04881392  0.89336669  0.52859283     0.98100
C1213       C  0.12121505  0.94746283  0.62306317     0.94500
Al1214     Al  0.06576086  0.93690167  0.62173808     1.55600
O1215       O  0.10826996  0.94061626  0.53905817    -0.77200
C1216       C  0.01317090  0.92035160  0.59413453     0.98700
C1217       C  0.05836185  0.88480509  0.62529259     0.93600
O1218       O  0.07600501  0.89065978  0.60499937    -0.82500
O1219       O  0.16945436  0.60650820  0.44908890    -0.82000
C1220       C  0.09466201  0.51086989  0.40005987     0.97400
O1221       O  0.10456990  0.52165237  0.42493148    -0.71100
O1222       O  0.13763749  0.55480374  0.46506960    -0.74700
Al1223     Al  0.11631547  0.55734861  0.43377641     1.49000
C1224       C  0.15573402  0.54908136  0.46140493     0.92600
O1225       O  0.18861500  0.57337863  0.38388537    -0.80900
O1226       O  0.15909567  0.59396883  0.35092159    -0.74500
Al1227     Al  0.17546755  0.58767425  0.41523578     1.90100
O1228       O  0.15150072  0.54397043  0.36169212    -0.73600
O1229       O  0.10873080  0.57553968  0.36775557    -0.73400
O1230       O  0.10134837  0.52478523  0.37617461    -0.79100
O1231       O  0.08847448  0.55651330  0.40992307    -0.77300
O1232       O  0.14108674  0.56868231  0.40509182    -1.13400
O1233       O  0.12636411  0.59224941  0.44449184    -0.72600
C1234       C  0.14907735  0.60881046  0.45490764     0.98100
C1235       C  0.17596990  0.55324068  0.36686683     0.94500
Al1236     Al  0.13115885  0.56032641  0.36709436     1.55600
O1237       O  0.17235057  0.55939973  0.44002901    -0.77200
C1238       C  0.08869446  0.56695302  0.38508489     0.98700
C1239       C  0.17553540  0.61587837  0.36342806     0.93600
O1240       O  0.18145470  0.61673480  0.39087129    -0.82500
O1241       O  0.44767479  0.83132521  0.43396311    -0.82000
C1242       C  0.43545947  0.91387321  0.38552171     0.97400
O1243       O  0.44878382  0.91461581  0.40810007    -0.71100
O1244       O  0.41677192  0.87752498  0.44428611    -0.74700
Al1245     Al  0.45074645  0.88756357  0.42936314     1.49000
C1246       C  0.39869728  0.85467230  0.45237334     0.92600
O1247       O  0.38799048  0.82209234  0.38805472    -0.80900
O1248       O  0.45918636  0.85341409  0.35350488    -0.74500
Al1249     Al  0.41850261  0.82879470  0.41075091     1.90100
O1250       O  0.40864876  0.84593857  0.34819173    -0.73600
O1251       O  0.47918222  0.90342587  0.36842373    -0.73400
O1252       O  0.42760542  0.89529222  0.36655304    -0.79100
O1253       O  0.48596698  0.89969660  0.41604870    -0.77300
O1254       O  0.43716540  0.86310793  0.40060514    -1.13400
O1255       O  0.45614120  0.86700287  0.45868810    -0.72600
C1256       C  0.46041259  0.84821957  0.45421882     0.98100
C1257       C  0.38739790  0.82835386  0.36105393     0.94500
Al1258     Al  0.44308372  0.87345640  0.36225723     1.55600
O1259       O  0.40014434  0.83422201  0.44543967    -0.77200
C1260       C  0.49490781  0.91015163  0.39064130     0.98700
C1261       C  0.45110664  0.82942940  0.35916033     0.93600
O1262       O  0.43244491  0.81680535  0.37827079    -0.82500
O1263       O  0.34605322  0.94041768  0.54586994    -0.82000
C1264       C  0.41129712  0.91203442  0.60330324     0.97400
O1265       O  0.40232704  0.91224692  0.57767783    -0.71100
O1266       O  0.37533250  0.91579587  0.53323368    -0.74700
Al1267     Al  0.39525839  0.93854333  0.56590398     1.49000
C1268       C  0.35500428  0.89277608  0.53444340     0.92600
O1269       O  0.31882345  0.88624578  0.60946888    -0.80900
O1270       O  0.34934496  0.93740522  0.64408845    -0.74500
Al1271     Al  0.33543013  0.91394530  0.57892874     1.90100
O1272       O  0.35278238  0.89270723  0.63730998    -0.73600
O1273       O  0.40058880  0.96683635  0.62981117    -0.73400
O1274       O  0.40492363  0.92119449  0.62592300    -0.79100
O1275       O  0.42283446  0.96482508  0.59099040    -0.77300
O1276       O  0.36866134  0.92723073  0.59224785    -1.13400
O1277       O  0.38965094  0.96525460  0.55300219    -0.72600
C1278       C  0.36836453  0.96218893  0.54188222     0.98100
C1279       C  0.32842794  0.87870188  0.63011947     0.94500
Al1280     Al  0.37614075  0.92924240  0.63119827     1.55600
O1281       O  0.33728032  0.88738599  0.55433335    -0.77200
C1282       C  0.42151902  0.97705972  0.61375407     0.98700
C1283       C  0.33450667  0.94355073  0.62981082     0.93600
O1284       O  0.32978128  0.93799188  0.60222840    -0.82500
O1285       O  0.27467335  0.49777798  0.21296475    -0.82000
C1286       C  0.17950359  0.92020662  0.26572415     0.97400
O1287       O  0.19010392  0.93070901  0.24085354    -0.71100
O1288       O  0.22212842  0.96524825  0.20114152    -0.74700
Al1289     Al  0.22596526  0.94332145  0.23039028     1.49000
C1290       C  0.21608480  0.98276431  0.20672911     0.92600
O1291       O  0.24300497  0.51414771  0.28149834    -0.80900
O1292       O  0.26548038  0.98318929  0.31281478    -0.74500
Al1293     Al  0.25633240  0.50226639  0.24842547     1.90100
O1294       O  0.21466501  0.97702112  0.30644772    -0.73600
O1295       O  0.24524642  0.93340812  0.29466582    -0.73400
O1296       O  0.19382208  0.92669051  0.28938641    -0.79100
O1297       O  0.22614729  0.91519430  0.25198223    -0.77300
O1298       O  0.23775731  0.96694510  0.25996838    -1.13400
O1299       O  0.26118024  0.95429611  0.21794811    -0.72600
C1300       C  0.27748577  0.97735858  0.20844407     0.98100
C1301       C  0.22405981  0.50173554  0.30024633     0.94500
Al1302     Al  0.23041242  0.95611181  0.29788208     1.55600
O1303       O  0.22705187  0.99871241  0.22832418    -0.77200
C1304       C  0.23695435  0.91448004  0.27614675     0.98700
C1305       C  0.28655026  0.50233435  0.29806683     0.93600
O1306       O  0.28635701  0.50818161  0.27082291    -0.82500
O1307       O  0.05835153  0.88760538  0.10798357    -0.82000
C1308       C  0.15847406  0.90480323  0.06494640     0.97400
O1309       O  0.14366189  0.88964868  0.08553456    -0.71100
O1310       O  0.13590618  0.91941832  0.12243483    -0.74700
Al1311     Al  0.11294993  0.88635810  0.10507433     1.49000
C1312       C  0.12993715  0.93632096  0.13099896     0.92600
O1313       O  0.11142853  0.95002192  0.06530789    -0.80900
O1314       O  0.07492060  0.88200672  0.02572636    -0.74500
Al1315     Al  0.08652050  0.91810904  0.08652189     1.90100
O1316       O  0.11887226  0.93198883  0.02582072    -0.73600
O1317       O  0.10438773  0.86160986  0.04254462    -0.73400
O1318       O  0.14889288  0.91320720  0.04545768    -0.79100
O1319       O  0.09068660  0.85201955  0.08942522    -0.77300
O1320       O  0.10355240  0.90093273  0.07630872    -1.13400
O1321       O  0.08509232  0.87912782  0.13309944    -0.72600
C1322       C  0.06190629  0.87479185  0.12829000     0.98100
C1323       C  0.12041378  0.95201354  0.03878824     0.94500
Al1324     Al  0.11108647  0.89754479  0.03804018     1.55600
O1325       O  0.10840738  0.93505245  0.12239669    -0.77200
C1326       C  0.09364446  0.84470951  0.06359407     0.98700
C1327       C  0.05816388  0.88904217  0.03207361     0.93600
O1328       O  0.06227570  0.90516435  0.05329019    -0.82500
O1329       O  0.99930643  0.77417360  0.22215808    -0.82000
C1330       C  0.08233284  0.75851632  0.26328528     0.97400
O1331       O  0.08224240  0.77143759  0.24085320    -0.71100
O1332       O  0.04185785  0.73946460  0.20807098    -0.74700
Al1333     Al  0.05459619  0.77405016  0.22180622     1.49000
C1334       C  0.01796749  0.72246841  0.20165985     0.92600
O1335       O  0.49277154  0.71611036  0.26875082    -0.80900
O1336       O  0.02489435  0.78587897  0.30053221    -0.74500
Al1337     Al  0.49919010  0.74594813  0.24558477     1.90100
O1338       O  0.01615397  0.73480558  0.30564127    -0.73600
O1339       O  0.07437210  0.80386839  0.28149367    -0.73400
O1340       O  0.06488954  0.75208735  0.28379360    -0.79100
O1341       O  0.06957214  0.80983727  0.23376887    -0.77300
O1342       O  0.03153701  0.76234300  0.25243612    -1.13400
O1343       O  0.03286321  0.77958939  0.19427759    -0.72600
C1344       C  0.01534142  0.78552575  0.20049686     0.98100
C1345       C  0.49941148  0.71566165  0.29559051     0.94500
Al1346     Al  0.04391057  0.76860704  0.28988638     1.55600
O1347       O  0.99873068  0.72574964  0.20966419    -0.77200
C1348       C  0.08091152  0.81899889  0.25869759     0.98700
C1349       C  0.50168520  0.77865120  0.29722983     0.93600
O1350       O  0.48849347  0.76023822  0.27841956    -0.82500
O1351       O  0.11351418  0.66822662  0.10490993    -0.82000
C1352       C  0.09617115  0.74843328  0.06049448     0.97400
O1353       O  0.10981861  0.74900834  0.08250484    -0.71100
O1354       O  0.07648532  0.70908430  0.11546789    -0.74700
Al1355     Al  0.11183892  0.72183451  0.10260721     1.49000
C1356       C  0.05957537  0.68534321  0.12229198     0.92600
O1357       O  0.05327778  0.65617710  0.05738775    -0.80900
O1358       O  0.12469680  0.69162482  0.02437619    -0.74500
Al1359     Al  0.08369986  0.66402333  0.08100277     1.90100
O1360       O  0.07341857  0.68253295  0.01901564    -0.73600
O1361       O  0.14228458  0.74071035  0.04305855    -0.73400
O1362       O  0.08979372  0.73099643  0.04023911    -0.79100
O1363       O  0.14823413  0.73660184  0.09109402    -0.77300
O1364       O  0.10067505  0.69858384  0.07244727    -1.13400
O1365       O  0.11670022  0.70093509  0.13175383    -0.72600
C1366       C  0.12359307  0.68410391  0.12680315     0.98100
C1367       C  0.05262435  0.66324153  0.03073846     0.94500
Al1368     Al  0.10701080  0.71041719  0.03471045     1.55600
O1369       O  0.06353197  0.66648950  0.11522936    -0.77200
C1370       C  0.15755040  0.74738083  0.06578088     0.98700
C1371       C  0.11693005  0.66748595  0.02920176     0.93600
O1372       O  0.09906496  0.65440195  0.04871714    -0.82500
O1373       O  0.34047976  0.94743020  0.10663513    -0.82000
C1374       C  0.25770707  0.84666498  0.06528242     0.97400
O1375       O  0.25742478  0.86072766  0.08658269    -0.71100
O1376       O  0.29695398  0.86997008  0.12089110    -0.74700
Al1377     Al  0.28495182  0.89160121  0.10543191     1.49000
C1378       C  0.32053364  0.87731164  0.12876942     0.92600
O1379       O  0.35152295  0.89774684  0.06221786    -0.80900
O1380       O  0.31632650  0.93070405  0.02527832    -0.74500
Al1381     Al  0.34365748  0.92090779  0.08419526     1.90100
O1382       O  0.32495848  0.88868801  0.02363598    -0.73600
O1383       O  0.26646171  0.89938767  0.04440045    -0.73400
O1384       O  0.27572432  0.85692361  0.04519010    -0.79100
O1385       O  0.27082060  0.91229555  0.09159131    -0.77300
O1386       O  0.30874002  0.90241588  0.07550679    -1.13400
O1387       O  0.30584596  0.91932714  0.13321345    -0.72600
C1388       C  0.32450754  0.94269143  0.12824773     0.98100
C1389       C  0.34435751  0.88838332  0.03608039     0.94500
Al1390     Al  0.29698819  0.89465618  0.03770744     1.55600
O1391       O  0.34032963  0.89938684  0.11977963    -0.77200
C1392       C  0.25965879  0.90880466  0.06631726     0.98700
C1393       C  0.34029211  0.94843652  0.03059708     0.93600
O1394       O  0.35348981  0.94514817  0.05092315    -0.82500
O1395       O  0.22394737  0.72343791  0.22218395    -0.82000
C1396       C  0.23844634  0.81771103  0.27697946     0.97400
O1397       O  0.22692722  0.80635317  0.25297202    -0.71100
O1398       O  0.26100234  0.80246740  0.21803085    -0.74700
Al1399     Al  0.22564723  0.77849344  0.22981811     1.49000
C1400       C  0.27777122  0.79627893  0.20887087     0.92600
O1401       O  0.28429111  0.77027579  0.27088473    -0.80900
O1402       O  0.21316717  0.73180282  0.30447743    -0.74500
Al1403     Al  0.25371572  0.74823326  0.24688528     1.90100
O1404       O  0.26435201  0.77492297  0.31080001    -0.73600
O1405       O  0.19462237  0.76290884  0.28933421    -0.73400
O1406       O  0.24671355  0.80667385  0.29455080    -0.79100
O1407       O  0.18945951  0.75553814  0.24054572    -0.77300
O1408       O  0.23673845  0.76512894  0.25813660    -1.13400
O1409       O  0.22103001  0.75411854  0.19816825    -0.72600
C1410       C  0.21395963  0.73005216  0.20130282     0.98100
C1411       C  0.28519025  0.77765698  0.29785671     0.94500
Al1412     Al  0.23030393  0.76864288  0.29663881     1.55600
O1413       O  0.27392118  0.77310256  0.21382425    -0.77200
C1414       C  0.17979604  0.75569732  0.26614549     0.98700
C1415       C  0.22043880  0.71547012  0.29773593     0.93600
O1416       O  0.23802605  0.72103384  0.27747726    -0.82500
O1417       O  0.38838602  0.55924016  0.89245251    -0.82000
C1418       C  0.40495974  0.65107364  0.95403179     0.97400
O1419       O  0.38649299  0.63691325  0.93549223    -0.71100
O1420       O  0.39998193  0.62312541  0.88567478    -0.74700
Al1421     Al  0.37481421  0.60353992  0.91587216     1.49000
C1422       C  0.42082445  0.62441248  0.87496048     0.92600
O1423       O  0.44981987  0.60842719  0.93884811    -0.80900
O1424       O  0.38452770  0.56701174  0.98415021    -0.74500
Al1425     Al  0.41661389  0.58503889  0.91825734     1.90100
O1426       O  0.43412252  0.60911433  0.98292804    -0.73600
O1427       O  0.36589612  0.60050689  0.98379852    -0.73400
O1428       O  0.41536297  0.64112707  0.97054813    -0.79100
O1429       O  0.34517054  0.58356284  0.94205759    -0.77300
O1430       O  0.39730140  0.59745880  0.93638136    -1.13400
O1431       O  0.35950731  0.57259406  0.89262777    -0.72600
C1432       C  0.36659986  0.55678230  0.88363692     0.98100
C1433       C  0.45354150  0.61363636  0.96647216     0.94500
Al1434     Al  0.39979751  0.60365833  0.97638647     1.55600
O1435       O  0.43036408  0.61121508  0.88635772    -0.77200
C1436       C  0.34468196  0.58965496  0.96894426     0.98700
C1437       C  0.39008064  0.55083978  0.97152845     0.93600
O1438       O  0.40461085  0.55679918  0.94778629    -0.82500
O1439       O  0.98910333  0.77144160  0.76142324    -0.82000
C1440       C  0.41449874  0.68239013  0.69666434     0.97400
O1441       O  0.40901939  0.69439826  0.71669182    -0.71100
O1442       O  0.43633198  0.69753254  0.76367173    -0.74700
Al1443     Al  0.43205535  0.72276203  0.74358401     1.49000
C1444       C  0.45623924  0.69978651  0.77749249     0.92600
O1445       O  0.00159060  0.72257667  0.71651682    -0.80900
O1446       O  0.48161721  0.76891674  0.67786013    -0.74500
Al1447     Al  0.99304860  0.74622728  0.73718633     1.90100
O1448       O  0.48849325  0.72660812  0.67453833    -0.73600
O1449       O  0.42877479  0.73719997  0.67916072    -0.73400
O1450       O  0.43668587  0.69410311  0.68282282    -0.79100
O1451       O  0.42505830  0.74742470  0.72551465    -0.77300
O1452       O  0.46182950  0.73391730  0.72221358    -1.13400
O1453       O  0.44734967  0.74756364  0.77566439    -0.72600
C1454       C  0.46995434  0.76780977  0.78038035     0.98100
C1455       C  0.00257284  0.72005971  0.68842907     0.94500
Al1456     Al  0.45923127  0.73195458  0.68206260     1.55600
O1457       O  0.97805259  0.71941503  0.76898847    -0.77200
C1458       C  0.41956214  0.74676855  0.69811763     0.98700
C1459       C  0.00628596  0.78422508  0.68708836     0.93600
O1460       O  0.01354350  0.77542103  0.70896533    -0.82500
O1461       O  0.44598260  0.82607008  0.89570911    -0.82000
C1462       C  0.35068366  0.75573493  0.95984749     0.97400
O1463       O  0.35984570  0.75077190  0.93647123    -0.71100
O1464       O  0.36668710  0.78406699  0.89481239    -0.74700
Al1465     Al  0.38896080  0.77245561  0.91039151     1.49000
C1466       C  0.37427333  0.80599976  0.88219340     0.92600
O1467       O  0.40090599  0.84266224  0.94314278    -0.80900
O1468       O  0.44148148  0.81206350  0.97738844    -0.74500
Al1469     Al  0.42245184  0.83280213  0.92026936     1.90100
O1470       O  0.40238419  0.82523053  0.98612614    -0.73600
O1471       O  0.40457103  0.76136425  0.97202460    -0.73400
O1472       O  0.36551855  0.77538227  0.97630920    -0.79100
O1473       O  0.40948292  0.75808606  0.92372581    -0.77300
O1474       O  0.40506765  0.79986562  0.93514385    -1.13400
O1475       O  0.41438532  0.78762122  0.87823639    -0.72600
C1476       C  0.43827260  0.80683564  0.87752594     0.98100
C1477       C  0.39649907  0.83987872  0.97116051     0.94500
Al1478     Al  0.40375595  0.79413858  0.97471313     1.55600
O1479       O  0.39767128  0.82568684  0.88694796    -0.77200
C1480       C  0.41023429  0.75101660  0.95021947     0.98700
C1481       C  0.45764236  0.83560283  0.96916921     0.93600
O1482       O  0.45066832  0.84703066  0.95021730    -0.82500
O1483       O  0.18398132  0.61583490  0.89893905    -0.82000
C1484       C  0.25521858  0.60024080  0.97131962     0.97400
O1485       O  0.26054660  0.61406571  0.94784440    -0.71100
O1486       O  0.22962876  0.58360607  0.90437552    -0.74700
Al1487     Al  0.23825411  0.61734476  0.91898784     1.49000
C1488       C  0.20865770  0.56793142  0.88998454     0.92600
O1489       O  0.16617307  0.55489227  0.94774346    -0.80900
O1490       O  0.19221194  0.62516438  0.98234055    -0.74500
Al1491     Al  0.17679821  0.58612378  0.92433880     1.90100
O1492       O  0.18182116  0.57419010  0.99123773    -0.73600
O1493       O  0.24359993  0.64378488  0.98003999    -0.73400
O1494       O  0.23317721  0.59174737  0.98489399    -0.79100
O1495       O  0.24911110  0.65219240  0.93166836    -0.77300
O1496       O  0.20893751  0.60374479  0.94162315    -1.13400
O1497       O  0.22369539  0.62423371  0.88436226    -0.72600
C1498       C  0.20378860  0.62715268  0.88110649     0.98100
C1499       C  0.16783902  0.55330827  0.97591249     0.94500
Al1500     Al  0.21222759  0.60826247  0.98136189     1.55600
O1501       O  0.18761692  0.56951971  0.89287811    -0.77200
C1502       C  0.25381297  0.66021679  0.95852837     0.98700
C1503       C  0.16952796  0.61751799  0.97126277     0.93600
O1504       O  0.15955703  0.59898306  0.95186135    -0.82500
O1505       O  0.28377766  0.00631602  0.76614190    -0.82000
C1506       C  0.26589022  0.58183727  0.72315475     0.97400
O1507       O  0.26807009  0.57404854  0.74878698    -0.71100
O1508       O  0.26587464  0.54322154  0.79190913    -0.74700
Al1509     Al  0.28868133  0.55886209  0.75772896     1.49000
C1510       C  0.24109712  0.52651185  0.79321223     0.92600
O1511       O  0.22224003  0.98856361  0.71694228    -0.80900
O1512       O  0.27387570  0.50923389  0.68031144    -0.74500
Al1513     Al  0.25333945  0.99876007  0.74108842     1.90100
O1514       O  0.23324789  0.52021709  0.68860555    -0.73600
O1515       O  0.30919695  0.55989053  0.68954651    -0.73400
O1516       O  0.26821131  0.57096894  0.69931603    -0.79100
O1517       O  0.31626017  0.58240543  0.73104032    -0.77300
O1518       O  0.27021211  0.53242735  0.73206071    -1.13400
O1519       O  0.31073429  0.54521895  0.76865785    -0.72600
C1520       C  0.30132797  0.52360379  0.78281969     0.98100
C1521       C  0.22188615  0.99314661  0.68911081     0.94500
Al1522     Al  0.27086856  0.53928382  0.69285581     1.55600
O1523       O  0.23427347  0.00413630  0.77478462    -0.77200
C1524       C  0.32372054  0.58017546  0.70518863     0.98700
C1525       C  0.28672242  0.99725142  0.69173915     0.93600
O1526       O  0.26829542  0.98578774  0.71121973    -0.82500
O1527       O  0.23087779  0.71829227  0.77545552    -0.82000
C1528       C  0.32505234  0.74709290  0.70724632     0.97400
O1529       O  0.31879526  0.73664480  0.73295095    -0.71100
O1530       O  0.31086954  0.76395394  0.77300273    -0.74700
Al1531     Al  0.29035418  0.72836300  0.76042666     1.49000
C1532       C  0.30103883  0.77498656  0.78842249     0.92600
O1533       O  0.27208817  0.78031801  0.72699238    -0.80900
O1534       O  0.23268657  0.70657935  0.69668962    -0.74500
Al1535     Al  0.25231800  0.74921654  0.75091957     1.90100
O1536       O  0.26974741  0.75963607  0.68435254    -0.73600
O1537       O  0.27141882  0.69571233  0.70113209    -0.73400
O1538       O  0.30822606  0.74890194  0.69132718    -0.79100
O1539       O  0.27220869  0.69246042  0.75011514    -0.77300
O1540       O  0.27112857  0.73532146  0.73578221    -1.13400
O1541       O  0.26565260  0.71779314  0.79387568    -0.72600
C1542       C  0.24064760  0.70902563  0.79374305     0.98100
C1543       C  0.27546872  0.78074607  0.69869643     0.94500
Al1544     Al  0.27035263  0.72826036  0.69659321     1.55600
O1545       O  0.27676211  0.76860564  0.78449202    -0.77200
C1546       C  0.27041004  0.68277612  0.72434787     0.98700
C1547       C  0.21640382  0.71384105  0.70414725     0.93600
O1548       O  0.22364976  0.73343769  0.72172763    -0.82500
C1549       C  0.27882013  0.62514524  0.74493983    -0.12500
C1550       C  0.26473849  0.60648829  0.72227177     0.04500
C1551       C  0.25283169  0.61321441  0.69906954    -0.07800
C1552       C  0.25504718  0.63842230  0.69926855    -0.08500
C1553       C  0.26905186  0.65685449  0.72239051    -0.03100
C1554       C  0.28155746  0.65010200  0.74492268     0.03800
N1555       N  0.29870464  0.66901859  0.76698421     0.66300
H1556       H  0.28917926  0.62092449  0.76225688     0.15200
H1557       H  0.24531824  0.64332182  0.68187478     0.14900
N1558       N  0.23767462  0.59441080  0.67605657     0.74000
O1559       O  0.29304388  0.66442066  0.79459583    -0.39500
O1560       O  0.32127186  0.68833446  0.75912355    -0.39400
O1561       O  0.21522808  0.57416814  0.68232504    -0.40100
O1562       O  0.24577265  0.59892665  0.64910587    -0.40200
C1563       C  0.20306282  0.66710225  0.86216331    -0.12500
C1564       C  0.20505827  0.64450182  0.85618280     0.04500
C1565       C  0.21410119  0.64178249  0.82760876    -0.07800
C1566       C  0.22320329  0.66236753  0.80668018    -0.08500
C1567       C  0.22342003  0.68596111  0.81334070    -0.03100
C1568       C  0.21199819  0.68795945  0.84087665     0.03800
N1569       N  0.21060283  0.71127211  0.84815454     0.64500
H1570       H  0.19609794  0.66921682  0.88413263     0.15200
H1571       H  0.23157268  0.66044733  0.78555997     0.14900
N1572       N  0.21545424  0.61865255  0.82012680     0.74000
O1573       O  0.20739874  0.72424982  0.82769983    -0.39500
O1574       O  0.20982228  0.71745030  0.87526188    -0.39400
O1575       O  0.19508096  0.59842360  0.80948630    -0.40100
O1576       O  0.23779164  0.61975461  0.82006069    -0.40200
C1577       C  0.19737659  0.54446797  0.83988617    -0.12500
C1578       C  0.21030183  0.54946112  0.86788176     0.04500
C1579       C  0.22917739  0.54127023  0.87205109    -0.07800
C1580       C  0.23706713  0.53143652  0.84774266    -0.08500
C1581       C  0.22610771  0.52883393  0.81908525    -0.03100
C1582       C  0.20532233  0.53445598  0.81540179     0.03800
N1583       N  0.19443865  0.53317177  0.78628785     0.66300
H1584       H  0.18295029  0.55070305  0.83615607     0.15200
H1585       H  0.23702961  0.01600264  0.83750549     0.14900
N1586       N  0.24142664  0.54396617  0.90065869     0.74000
O1587       O  0.17005853  0.51650416  0.78118747    -0.39500
O1588       O  0.20826093  0.55061556  0.76682711    -0.39400
O1589       O  0.22151153  0.01394816  0.90250235    -0.40100
O1590       O  0.25029953  0.05552830  0.89290374    -0.40200
C1591       C  0.30399950  0.73240209  0.94377475    -0.12500
C1592       C  0.32224661  0.73752279  0.96690667     0.04500
C1593       C  0.31448662  0.71982248  0.99130867    -0.07800
C1594       C  0.29007411  0.69546880  0.98992715    -0.08500
C1595       C  0.27370935  0.68857099  0.96434916    -0.03100
C1596       C  0.27983143  0.70817625  0.94227619     0.03800
N1597       N  0.26260214  0.70329759  0.91722567     0.66300
H1598       H  0.30974186  0.74618021  0.92513803     0.15200
H1599       H  0.28502706  0.68112014  0.00773274     0.14900
N1600       N  0.33244627  0.72499417  0.01575908     0.74000
O1601       O  0.24842411  0.71400017  0.91689125    -0.39500
O1602       O  0.26675789  0.69463093  0.89292820    -0.39400
O1603       O  0.34077161  0.74582640  0.03139058    -0.40100
O1604       O  0.33890920  0.70813334  0.02279635    -0.40200
C1605       C  0.32778656  0.79154168  0.86642057    -0.12500
C1606       C  0.35550793  0.80704636  0.86043009     0.04500
C1607       C  0.36400164  0.81785829  0.83141647    -0.07800
C1608       C  0.34506656  0.81006768  0.80822738    -0.08500
C1609       C  0.31758303  0.79212686  0.81359229    -0.03100
C1610       C  0.30883155  0.78429958  0.84344369     0.03800
N1611       N  0.28122197  0.76569152  0.84998083     0.66300
H1612       H  0.32086304  0.78326201  0.88867780     0.15200
H1613       H  0.35215995  0.81610662  0.78538342     0.14900
N1614       N  0.39191891  0.83366960  0.82417388     0.74000
O1615       O  0.27426654  0.74261832  0.85902099    -0.39500
O1616       O  0.26424472  0.77311359  0.84956080    -0.39400
O1617       O  0.40432743  0.85838510  0.82924416    -0.40100
O1618       O  0.40312597  0.82372653  0.80892079    -0.40200
C1619       C  0.37340807  0.60773095  0.70215822    -0.12500
C1620       C  0.34828283  0.60318333  0.69296525     0.04500
C1621       C  0.34650934  0.62420372  0.67987086    -0.07800
C1622       C  0.36928581  0.64979222  0.67899660    -0.08500
C1623       C  0.39401805  0.65466691  0.68968187    -0.03100
C1624       C  0.39646560  0.63321703  0.69988829     0.03800
N1625       N  0.42169946  0.63751902  0.71030371     0.66300
H1626       H  0.37483659  0.59181738  0.71262625     0.15200
H1627       H  0.36745328  0.66631670  0.67124869     0.14900
N1628       N  0.32131944  0.62028207  0.66950549     0.74000
O1629       O  0.42361504  0.63044040  0.73646956    -0.39500
O1630       O  0.44123584  0.64550060  0.69220325    -0.39400
O1631       O  0.31566243  0.63832738  0.67308362    -0.40100
O1632       O  0.30646359  0.60050930  0.65309741    -0.40200
C1633       C  0.35490049  0.74059355  0.67287208    -0.12500
C1634       C  0.35207540  0.75552165  0.69587404     0.04500
C1635       C  0.37448083  0.77297242  0.71311628    -0.07800
C1636       C  0.39836485  0.77289658  0.70970765    -0.08500
C1637       C  0.40012396  0.75497840  0.68997106    -0.03100
C1638       C  0.37891058  0.74022057  0.66946318     0.03800
N1639       N  0.38037558  0.72310927  0.64712071     0.66300
H1640       H  0.33760196  0.72734697  0.65939362     0.15200
H1641       H  0.41464502  0.78478076  0.72505398     0.14900
N1642       N  0.37222594  0.78845835  0.73670251     0.74000
O1643       O  0.40078934  0.73187333  0.63022816    -0.39500
O1644       O  0.35963061  0.70124241  0.64054798    -0.39400
O1645       O  0.37247450  0.78226818  0.76378580    -0.40100
O1646       O  0.37369945  0.81021331  0.73058883    -0.40200
C1647       C  0.47490832  0.77939096  0.83439163    -0.12500
C1648       C  0.47192934  0.78596695  0.80496135     0.04500
C1649       C  0.46381083  0.80478460  0.80058138    -0.07800
C1650       C  0.45617580  0.81431357  0.82569993    -0.08500
C1651       C  0.45653697  0.80562439  0.85489092    -0.03100
C1652       C  0.46764567  0.78922782  0.85960696     0.03800
N1653       N  0.97744563  0.78711664  0.88379638     0.66300
H1654       H  0.98515754  0.76905302  0.83138651     0.15200
H1655       H  0.44817312  0.82725459  0.82235166     0.14900
N1656       N  0.46160108  0.81305914  0.77083824     0.74000
O1657       O  0.97603676  0.76517487  0.88866033    -0.39500
O1658       O  0.98530029  0.80427679  0.90456491    -0.39400
O1659       O  0.44628353  0.82208896  0.76605070    -0.40100
O1660       O  0.47676363  0.81374461  0.74984897    -0.40200
C1661       C  0.27224763  0.56949722  0.97809052    -0.12500
C1662       C  0.27572428  0.59485105  0.98230779     0.04500
C1663       C  0.30121434  0.61637897  0.98959403    -0.07800
C1664       C  0.32336884  0.61307425  0.98919443    -0.08500
C1665       C  0.32052475  0.58861228  0.98097720    -0.03100
C1666       C  0.29460934  0.56605705  0.97729745     0.03800
N1667       N  0.29096655  0.54009109  0.97190439     0.66300
H1668       H  0.25241403  0.55286750  0.97328397     0.15200
H1669       H  0.34321619  0.63042234  0.99221042     0.14900
N1670       N  0.30516113  0.64226418  0.99487068     0.74000
O1671       O  0.30766441  0.53429529  0.98196210    -0.39500
O1672       O  0.26972013  0.52199869  0.95986708    -0.39400
O1673       O  0.29979451  0.64786391  0.02047266    -0.40100
O1674       O  0.31792200  0.66054811  0.97588744    -0.40200
C1675       C  0.36103774  0.53883290  0.83179901    -0.12500
C1676       C  0.34961986  0.53719978  0.86027793     0.04500
C1677       C  0.32134809  0.52423258  0.86285729    -0.07800
C1678       C  0.30557768  0.51682448  0.83674928    -0.08500
C1679       C  0.31741971  0.52244474  0.80800369    -0.03100
C1680       C  0.34538019  0.53221639  0.80554632     0.03800
N1681       N  0.35852206  0.53670643  0.77682884     0.66300
H1682       H  0.38269209  0.54864304  0.82954371     0.15200
H1683       H  0.28584413  0.02464877  0.84531841     0.14900
N1684       N  0.30870778  0.52054318  0.89181060     0.74000
O1685       O  0.35949981  0.55401650  0.75920758    -0.39500
O1686       O  0.37375989  0.52753561  0.77185171    -0.39400
O1687       O  0.28838304  0.52297376  0.89494631    -0.40100
O1688       O  0.32880659  0.03668542  0.91461431    -0.40200
C1689       C  0.42030253  0.71817909  0.92827106    -0.12500
C1690       C  0.41558573  0.72886187  0.95441993     0.04500
C1691       C  0.41263125  0.71578267  0.98227273    -0.07800
C1692       C  0.41117861  0.69090037  0.98238141    -0.08500
C1693       C  0.41365238  0.67954526  0.95554857    -0.03100
C1694       C  0.41953457  0.69403765  0.92867887     0.03800
N1695       N  0.42437543  0.68416010  0.90132597     0.66300
H1696       H  0.42348525  0.72798772  0.90675673     0.15200
H1697       H  0.40699612  0.67989354  0.00320783     0.14900
N1698       N  0.41058599  0.72698811  0.01029802     0.74000
O1699       O  0.40954223  0.67992733  0.87884962    -0.39500
O1700       O  0.44633391  0.68479152  0.89794667    -0.39400
O1701       O  0.39476555  0.71203014  0.03059787    -0.40100
O1702       O  0.42797965  0.75069563  0.01688050    -0.40200
C1703       C  0.45961900  0.66111607  0.84555452    -0.12500
C1704       C  0.43246341  0.64075463  0.84748505     0.04500
C1705       C  0.41488893  0.63841018  0.82443598    -0.07800
C1706       C  0.42392957  0.65681446  0.80118598    -0.08500
C1707       C  0.45036791  0.67868993  0.80022894    -0.03100
C1708       C  0.46859523  0.68035232  0.82235021     0.03800
N1709       N  0.99435479  0.69897598  0.81650179     0.66300
H1710       H  0.47334500  0.66327812  0.86323602     0.15200
H1711       H  0.40941513  0.65433063  0.78433814     0.14900
N1712       N  0.38725216  0.61774530  0.82482655     0.74000
O1713       O  0.00150501  0.72273436  0.82306091    -0.39500
O1714       O  0.01186428  0.69225532  0.81493155    -0.39400
O1715       O  0.36937590  0.62332143  0.83107251    -0.40100
O1716       O  0.38056060  0.59554829  0.81304987    -0.40200
C1717       C  0.35927103  0.99905902  0.96734057    -0.12500
C1718       C  0.37896223  0.52428922  0.98493464     0.04500
C1719       C  0.38649144  0.52125074  0.01392859    -0.07800
C1720       C  0.37405255  0.49603444  0.02725059    -0.08500
C1721       C  0.35295175  0.97373895  0.01333700    -0.03100
C1722       C  0.34745087  0.97456668  0.98255321     0.03800
N1723       N  0.33024415  0.95067416  0.96633245     0.66300
H1724       H  0.35502882  0.99943944  0.94371348     0.15200
H1725       H  0.38009035  0.49414566  0.04966173     0.14900
N1726       N  0.40680270  0.54366642  0.03005809     0.74000
O1727       O  0.30577053  0.94324848  0.96311190    -0.39500
O1728       O  0.34011629  0.93882378  0.95221855    -0.39400
O1729       O  0.40058292  0.55781370  0.04576263    -0.40100
O1730       O  0.43023775  0.54741460  0.03148324    -0.40200
C1731       C  0.35407750  0.87134666  0.98860650    -0.12500
C1732       C  0.35882783  0.87701660  0.01952803     0.04500
C1733       C  0.37711936  0.87143651  0.03388376    -0.07800
C1734       C  0.38927761  0.85965888  0.01766681    -0.08500
C1735       C  0.38406466  0.85350483  0.98696411    -0.03100
C1736       C  0.36633447  0.85964415  0.97233470     0.03800
N1737       N  0.35941066  0.85287346  0.94139166     0.66300
H1738       H  0.34026339  0.87549554  0.97697780     0.15200
H1739       H  0.40296670  0.85530948  0.02926889     0.14900
N1740       N  0.38343748  0.87729330  0.06501954     0.74000
O1741       O  0.34675008  0.82875617  0.93336892    -0.39500
O1742       O  0.36309430  0.87068175  0.92280537    -0.39400
O1743       O  0.37098923  0.85941135  0.08450079    -0.40100
O1744       O  0.40350045  0.89927492  0.07267397    -0.40200
C1745       C  0.31600600  0.83397921  0.14062203    -0.12500
C1746       C  0.32330498  0.85975859  0.15028978     0.04500
C1747       C  0.32332621  0.86462588  0.18130701    -0.07800
C1748       C  0.31240922  0.84324689  0.20147476    -0.08500
C1749       C  0.30091610  0.81685457  0.19119136    -0.03100
C1750       C  0.30512811  0.81240862  0.16090026     0.03800
N1751       N  0.29590623  0.78600389  0.14987292     0.66300
H1752       H  0.31622231  0.83017831  0.11675330     0.15200
H1753       H  0.30954858  0.84699096  0.22475405     0.14900
N1754       N  0.32992442  0.89031269  0.19214195     0.74000
O1755       O  0.28599551  0.77929890  0.12389302    -0.39500
O1756       O  0.30109413  0.77064402  0.16427697    -0.39400
O1757       O  0.31245305  0.89709111  0.19133779    -0.40100
O1758       O  0.35046563  0.90337188  0.20824583    -0.40200
C1759       C  0.02760646  0.65490985  0.98199523    -0.12500
C1760       C  0.02728934  0.64901792  0.01284486     0.04500
C1761       C  0.00244780  0.63033641  0.02615140    -0.07800
C1762       C  0.48102868  0.61736828  0.01076321    -0.08500
C1763       C  0.48031360  0.62480642  0.98092580    -0.03100
C1764       C  0.00382185  0.64349047  0.96492455     0.03800
N1765       N  0.00507394  0.65153117  0.93430127     0.66300
H1766       H  0.04635294  0.66912769  0.97118255     0.15200
H1767       H  0.46257721  0.60288969  0.02191026     0.14900
N1768       N  0.50411686  0.61920960  0.05688366     0.74000
O1769       O  0.99240564  0.66276035  0.92635173    -0.39500
O1770       O  0.52167465  0.65343249  0.91774978    -0.39400
O1771       O  0.98743000  0.62794615  0.07552185    -0.40100
O1772       O  0.51028098  0.60176820  0.06191550    -0.40200
C1773       C  0.15602238  0.66988809  0.00268344    -0.12500
C1774       C  0.12919690  0.65446150  0.01212326     0.04500
C1775       C  0.11486585  0.62688596  0.00552246    -0.07800
C1776       C  0.12773955  0.61521576  0.99046745    -0.08500
C1777       C  0.15486087  0.63057868  0.98208170    -0.03100
C1778       C  0.16888704  0.65826882  0.98777377     0.03800
N1779       N  0.19620349  0.67487875  0.97818054     0.66300
H1780       H  0.16722856  0.69109377  0.00723868     0.15200
H1781       H  0.11681274  0.59393914  0.98638616     0.14900
N1782       N  0.08723566  0.61050069  0.01386694     0.74000
O1783       O  0.20229198  0.67582859  0.95070322    -0.39500
O1784       O  0.21398692  0.68971044  0.99681927    -0.39400
O1785       O  0.06912089  0.60782545  0.99615154    -0.40100
O1786       O  0.08091355  0.59663336  0.03746747    -0.40200
C1787       C  0.22286758  0.80713924  0.03692292    -0.12500
C1788       C  0.23564621  0.81852566  0.06421444     0.04500
C1789       C  0.22425009  0.80441409  0.09122794    -0.07800
C1790       C  0.19986733  0.78033090  0.09073536    -0.08500
C1791       C  0.18587263  0.76979335  0.06380236    -0.03100
C1792       C  0.19809954  0.78301565  0.03648303     0.03800
N1793       N  0.18509542  0.77299168  0.00827259     0.66300
H1794       H  0.23123999  0.81779361  0.01604700     0.15200
H1795       H  0.19127447  0.77055319  0.11199659     0.14900
N1796       N  0.23670166  0.81479339  0.11965934     0.74000
O1797       O  0.17410802  0.78406417  0.99523582    -0.39500
O1798       O  0.18673111  0.75467654  0.99509025    -0.39400
O1799       O  0.22494338  0.82101284  0.13927769    -0.40100
O1800       O  0.25687603  0.81332728  0.12697415    -0.40200
C1801       C  0.17152607  0.69887683  0.13228426    -0.12500
C1802       C  0.14570942  0.68604355  0.14520838     0.04500
C1803       C  0.14320425  0.68375310  0.17679470    -0.07800
C1804       C  0.16629267  0.69551537  0.19482891    -0.08500
C1805       C  0.19206872  0.71016809  0.18197019    -0.03100
C1806       C  0.19471192  0.71121608  0.15029088     0.03800
N1807       N  0.22067679  0.72619278  0.13624199     0.66300
H1808       H  0.17362491  0.70138999  0.10807906     0.15200
H1809       H  0.16395783  0.69524351  0.21907994     0.14900
N1810       N  0.11728659  0.67153985  0.19085532     0.74000
O1811       O  0.24044319  0.72540052  0.14669789    -0.39500
O1812       O  0.22363677  0.73903635  0.11237341    -0.39400
O1813       O  0.10121816  0.64685381  0.18793182    -0.40100
O1814       O  0.11110928  0.68501615  0.20783599    -0.40200
C1815       C  0.11598621  0.75372166  0.29299091    -0.12500
C1816       C  0.10392071  0.75215955  0.26523661     0.04500
C1817       C  0.11484134  0.74763334  0.23887536    -0.07800
C1818       C  0.13803772  0.74612968  0.24047180    -0.08500
C1819       C  0.15178142  0.75033877  0.26770084    -0.03100
C1820       C  0.13999413  0.75327454  0.29440891     0.03800
N1821       N  0.15295103  0.75762962  0.32280248     0.66300
H1822       H  0.10787431  0.75725636  0.31339777     0.15200
H1823       H  0.14631816  0.74356578  0.21961281     0.14900
N1824       N  0.10372145  0.74628541  0.20987199     0.74000
O1825       O  0.16785342  0.78108024  0.33232738    -0.39500
O1826       O  0.14632856  0.73823398  0.34019337    -0.39400
O1827       O  0.11361556  0.76700372  0.19390595    -0.40100
O1828       O  0.08917152  0.72390135  0.19763716    -0.40200
C1829       C  0.03596695  0.67487908  0.17096351    -0.12500
C1830       C  0.03629174  0.68096253  0.14049799     0.04500
C1831       C  0.01994873  0.69105364  0.13081517    -0.07800
C1832       C  0.00879279  0.70034421  0.15243461    -0.08500
C1833       C  0.01401231  0.69987025  0.18301792    -0.03100
C1834       C  0.02492576  0.68431089  0.19247848     0.03800
N1835       N  0.02690738  0.67970923  0.22378798     0.66300
H1836       H  0.04754991  0.66618360  0.17849819     0.15200
H1837       H  0.99947400  0.71136965  0.14507469     0.14900
N1838       N  0.01572822  0.69354160  0.09943278     0.74000
O1839       O  0.03904041  0.69889924  0.24188070    -0.39500
O1840       O  0.01883130  0.65636440  0.23280958    -0.39400
O1841       O  0.99289358  0.68843016  0.09069850    -0.40100
O1842       O  0.03472641  0.70193769  0.08054755    -0.40200
C1843       C  0.00854418  0.86522185  0.03140207    -0.12500
C1844       C  0.03277932  0.87738440  0.01525392     0.04500
C1845       C  0.03223985  0.87633917  0.98354886    -0.07800
C1846       C  0.00749130  0.86258923  0.96860707    -0.08500
C1847       C  0.48481593  0.84964809  0.98242688    -0.03100
C1848       C  0.49727143  0.87637180  0.99208602     0.03800
N1849       N  0.48437737  0.89150125  0.98842110     0.66300
H1850       H  0.00875504  0.86649821  0.05569537     0.15200
H1851       H  0.00716073  0.86214636  0.94423023     0.14900
N1852       N  0.05658556  0.89002387  0.96636013     0.74000
O1853       O  0.46347994  0.88568464  0.00344029    -0.39500
O1854       O  0.49513453  0.91204750  0.97213906    -0.39400
O1855       O  0.06299408  0.87728761  0.94848012    -0.40100
O1856       O  0.07085204  0.91507955  0.96762158    -0.40200
C1857       C  0.13427544  0.97690274  0.99015595    -0.12500
C1858       C  0.13241164  0.97763047  0.02173011     0.04500
C1859       C  0.14218616  0.00263266  0.03580020    -0.07800
C1860       C  0.15491949  0.52631492  0.02328309    -0.08500
C1861       C  0.15395211  0.52695747  0.99164256    -0.03100
C1862       C  0.14082008  0.50242324  0.97598726     0.03800
N1863       N  0.13918128  0.50149811  0.94390671     0.66300
H1864       H  0.12708454  0.95803214  0.97874868     0.15200
H1865       H  0.16489446  0.54473572  0.03598252     0.14900
N1866       N  0.14133344  0.00479432  0.06777402     0.74000
O1867       O  0.17168843  0.00943201  0.92897252    -0.39500
O1868       O  0.11764271  0.49647781  0.93132809    -0.39400
O1869       O  0.16096451  0.00821547  0.08332808    -0.40100
O1870       O  0.12262605  0.00667309  0.08003300    -0.40200
C1871       C  0.09237037  0.78319222  0.03232143    -0.12500
C1872       C  0.08896090  0.76926514  0.05915666     0.04500
C1873       C  0.08234477  0.77803643  0.08584920    -0.07800
C1874       C  0.08104869  0.80115097  0.08565253    -0.08500
C1875       C  0.08731376  0.81679848  0.05968383    -0.03100
C1876       C  0.09164736  0.80691032  0.03236079     0.03800
N1877       N  0.09648534  0.82121664  0.00483174     0.66300
H1878       H  0.09723520  0.77657226  0.01165661     0.15200
H1879       H  0.07722861  0.80791134  0.10687708     0.14900
N1880       N  0.07864991  0.76484544  0.11402948     0.74000
O1881       O  0.11892118  0.83078034  0.99163094    -0.39500
O1882       O  0.07773683  0.82276143  0.99264820    -0.39400
O1883       O  0.09885001  0.77170609  0.13040874    -0.40100
O1884       O  0.05566092  0.75340472  0.12613090    -0.40200
C1885       C  0.03985279  0.85571583  0.17728736    -0.12500
C1886       C  0.03961376  0.85315104  0.14585603     0.04500
C1887       C  0.02482846  0.82743037  0.13316184    -0.07800
C1888       C  0.01379153  0.80491148  0.15184158    -0.08500
C1889       C  0.01604496  0.80745783  0.18321549    -0.03100
C1890       C  0.02769934  0.83317620  0.19612683     0.03800
N1891       N  0.02986120  0.83673352  0.22819885     0.66300
H1892       H  0.05128828  0.87534919  0.18724878     0.15200
H1893       H  0.50874219  0.78400952  0.14109017     0.14900
N1894       N  0.02297141  0.82385218  0.10123848     0.74000
O1895       O  0.05063512  0.85598278  0.23966960    -0.39500
O1896       O  0.00984621  0.82247514  0.24487759    -0.39400
O1897       O  0.02919001  0.80820767  0.08890558    -0.40100
O1898       O  0.52491549  0.83651725  0.08085309    -0.40200
C1899       C  0.19886875  0.91087074  0.03684786    -0.12500
C1900       C  0.18678515  0.91145672  0.06412849     0.04500
C1901       C  0.20063402  0.91464020  0.09125004    -0.07800
C1902       C  0.22534566  0.91599102  0.09083678    -0.08500
C1903       C  0.23650804  0.91305907  0.06394853    -0.03100
C1904       C  0.22332372  0.91114720  0.03655332     0.03800
N1905       N  0.23361102  0.90801959  0.00846525     0.66300
H1906       H  0.18836131  0.90817870  0.01588810     0.15200
H1907       H  0.23493133  0.91764194  0.11221483     0.14900
N1908       N  0.18928814  0.91524955  0.11974382     0.74000
O1909       O  0.22695634  0.88498175  0.99928507    -0.39500
O1910       O  0.24502345  0.92743961  0.99059263    -0.39400
O1911       O  0.17910849  0.89489677  0.13633480    -0.40100
O1912       O  0.19490372  0.93735077  0.13095186    -0.40200
C1913       C  0.21474057  0.84195612  0.28204175    -0.12500
C1914       C  0.23915045  0.84263588  0.28460416     0.04500
C1915       C  0.26314395  0.86737678  0.28830293    -0.07800
C1916       C  0.26223979  0.89108339  0.28721610    -0.08500
C1917       C  0.23774457  0.89017258  0.28296199    -0.03100
C1918       C  0.21379436  0.86527487  0.28141757     0.03800
N1919       N  0.18825397  0.86342024  0.27933879     0.66300
H1920       H  0.19619750  0.82300098  0.27952323     0.15200
H1921       H  0.28072461  0.91018250  0.28841092     0.14900
N1922       N  0.28848815  0.86879875  0.29109211     0.74000
O1923       O  0.17174098  0.84893907  0.25942057    -0.39500
O1924       O  0.18046670  0.87229612  0.30059530    -0.39400
O1925       O  0.30853296  0.88554592  0.27591688    -0.40100
O1926       O  0.29157035  0.85513921  0.31078087    -0.40200
C1927       C  0.31683318  0.97261540  0.19826307    -0.12500
C1928       C  0.29891656  0.98019242  0.18787797     0.04500
C1929       C  0.29706786  0.98312660  0.15678813    -0.07800
C1930       C  0.31011541  0.97487304  0.13656057    -0.08500
C1931       C  0.32517808  0.96390673  0.14698977    -0.03100
C1932       C  0.33067368  0.96508210  0.17805730     0.03800
N1933       N  0.34885148  0.95720956  0.18931366     0.66300
H1934       H  0.31846826  0.97073823  0.22226563     0.15200
H1935       H  0.30556441  0.97378930  0.11280282     0.14900
N1936       N  0.27864807  0.99028733  0.14544754     0.74000
O1937       O  0.36562089  0.95611983  0.17189087    -0.39500
O1938       O  0.35031525  0.95420811  0.21720348    -0.39400
O1939       O  0.28717027  0.01389142  0.13712171    -0.40100
O1940       O  0.25489069  0.97235420  0.13948705    -0.40200
C1941       C  0.14025883  0.88639538  0.23702071    -0.12500
C1942       C  0.15102650  0.89775424  0.26523871     0.04500
C1943       C  0.13613312  0.88465403  0.29142887    -0.07800
C1944       C  0.11272294  0.85933005  0.28881990    -0.08500
C1945       C  0.10336000  0.84713570  0.26058823    -0.03100
C1946       C  0.11707831  0.86143837  0.23444624     0.03800
N1947       N  0.10951257  0.84988304  0.20509505     0.66300
H1948       H  0.15095080  0.89595751  0.21644030     0.15200
H1949       H  0.10195246  0.84896121  0.30902960     0.14900
N1950       N  0.14455811  0.89652099  0.32064703     0.74000
O1951       O  0.09455671  0.85455922  0.18904460    -0.39500
O1952       O  0.12025714  0.83761324  0.19392468    -0.39400
O1953       O  0.15164181  0.92063997  0.32466266    -0.40100
O1954       O  0.14170220  0.88222759  0.34316313    -0.40200
C1955       C  0.16822413  0.96734422  0.20167610    -0.12500
C1956       C  0.19419344  0.98209649  0.18934054     0.04500
C1957       C  0.19733269  0.98776369  0.15828302    -0.07800
C1958       C  0.17457013  0.97523295  0.13972987    -0.08500
C1959       C  0.14906391  0.95716398  0.15155428    -0.03100
C1960       C  0.14557507  0.95438040  0.18307849     0.03800
N1961       N  0.11992772  0.93636360  0.19645812     0.66300
H1962       H  0.16583274  0.96288601  0.22553804     0.15200
H1963       H  0.17712118  0.97743577  0.11553662     0.14900
N1964       N  0.22200108  0.50558635  0.14351315     0.74000
O1965       O  0.10638006  0.91259832  0.18740247    -0.39500
O1966       O  0.11264102  0.94303660  0.22015313    -0.39400
O1967       O  0.22593618  0.50441715  0.11569786    -0.40100
O1968       O  0.24041419  0.52390004  0.15899789    -0.40200
C1969       C  0.31786389  0.85398681  0.67811049    -0.12500
C1970       C  0.31150500  0.85389952  0.64762807     0.04500
C1971       C  0.29149201  0.82978353  0.63462261    -0.07800
C1972       C  0.27981056  0.80618796  0.65171436    -0.08500
C1973       C  0.28694843  0.80624689  0.68193047    -0.03100
C1974       C  0.30600209  0.83063157  0.69523713     0.03800
N1975       N  0.31515461  0.83179612  0.72535874     0.66300
H1976       H  0.33314336  0.87230572  0.68849973     0.15200
H1977       H  0.26496986  0.78766624  0.64131208     0.14900
N1978       N  0.28340531  0.82864106  0.60403550     0.74000
O1979       O  0.32658217  0.81906892  0.73217683    -0.39500
O1980       O  0.31529694  0.84835004  0.74385019    -0.39400
O1981       O  0.28283612  0.81131861  0.58645099    -0.40100
O1982       O  0.27176183  0.84097951  0.59645958    -0.40200
C1983       C  0.31291059  0.95022789  0.67528639    -0.12500
C1984       C  0.32252374  0.95745007  0.64566712     0.04500
C1985       C  0.32011612  0.97760807  0.63136809    -0.07800
C1986       C  0.30818578  0.99001346  0.64674095    -0.08500
C1987       C  0.29848624  0.98282425  0.67636837    -0.03100
C1988       C  0.30067306  0.96245946  0.69053705     0.03800
N1989       N  0.29111848  0.95436640  0.72059135     0.66300
H1990       H  0.31450862  0.93468459  0.68649181     0.15200
H1991       H  0.27651857  0.48358565  0.63440930     0.14900
N1992       N  0.33079132  0.98654235  0.60174775     0.74000
O1993       O  0.26724790  0.93581128  0.72507863    -0.39500
O1994       O  0.30742679  0.96305678  0.74217875    -0.39400
O1995       O  0.27425553  0.44410369  0.58625147    -0.40100
O1996       O  0.31484070  0.47866121  0.58345587    -0.40200
C1997       C  0.33715019  0.80138126  0.36061306    -0.12500
C1998       C  0.36145244  0.81503691  0.34439466     0.04500
C1999       C  0.36032796  0.81597760  0.31263858    -0.07800
C2000       C  0.33540373  0.80363059  0.29805221    -0.08500
C2001       C  0.31115099  0.79007310  0.31431869    -0.03100
C2002       C  0.31226498  0.78902732  0.34598380     0.03800
N2003       N  0.28834371  0.77453165  0.36360400     0.66300
H2004       H  0.33737046  0.80026364  0.38492441     0.15200
H2005       H  0.33506853  0.80473226  0.27374282     0.14900
N2006       N  0.38426532  0.82889809  0.29470327     0.74000
O2007       O  0.27886883  0.75004930  0.36830889    -0.39500
O2008       O  0.27925453  0.78686165  0.37820688    -0.39400
O2009       O  0.39793944  0.81788495  0.29048079    -0.40100
O2010       O  0.39024545  0.84992677  0.28063901    -0.40200
C2011       C  0.45072429  0.78834533  0.34155866    -0.12500
C2012       C  0.46396646  0.81628364  0.34317701     0.04500
C2013       C  0.48969672  0.83138589  0.32958381    -0.07800
C2014       C  0.50176803  0.81857939  0.31569946    -0.08500
C2015       C  0.48846089  0.79082079  0.31385288    -0.03100
C2016       C  0.46266494  0.77550880  0.32690756     0.03800
N2017       N  0.44884770  0.74700575  0.32645963     0.66300
H2018       H  0.43106846  0.77639342  0.35183313     0.15200
H2019       H  0.02433236  0.82934522  0.31123997     0.14900
N2020       N  0.00909597  0.86066873  0.33513407     0.74000
O2021       O  0.45991123  0.73498576  0.33700136    -0.39500
O2022       O  0.42476921  0.73377563  0.31787021    -0.39400
O2023       O  0.03093192  0.87027566  0.34924009    -0.40100
O2024       O  0.00557798  0.87553939  0.31767479    -0.40200
C2025       C  0.37319665  0.84536735  0.50056607    -0.12500
C2026       C  0.37640827  0.85340480  0.47039861     0.04500
C2027       C  0.36442372  0.86797993  0.46050706    -0.07800
C2028       C  0.35403254  0.87821741  0.48200772    -0.08500
C2029       C  0.35375417  0.87284275  0.51270122    -0.03100
C2030       C  0.36132011  0.85446004  0.52161573     0.03800
N2031       N  0.35924209  0.84678519  0.55243752     0.66300
H2032       H  0.38198747  0.83397619  0.50832935     0.15200
H2033       H  0.34784723  0.89201522  0.47509804     0.14900
N2034       N  0.36444042  0.87404136  0.42905988     0.74000
O2035       O  0.38014059  0.85281994  0.56709434    -0.39500
O2036       O  0.33662013  0.82976111  0.56303188    -0.39400
O2037       O  0.36624928  0.85964389  0.40896768    -0.40100
O2038       O  0.35965294  0.89191871  0.42115817    -0.40200
C2039       C  0.20596001  0.66701373  0.30010625    -0.12500
C2040       C  0.20854965  0.68978780  0.31433137     0.04500
C2041       C  0.20004781  0.68775719  0.34464916    -0.07800
C2042       C  0.19017195  0.66375726  0.36022446    -0.08500
C2043       C  0.18750103  0.64103887  0.34606907    -0.03100
C2044       C  0.19531469  0.64268445  0.31558106     0.03800
N2045       N  0.19343806  0.62013026  0.30037724     0.66300
H2046       H  0.21228218  0.66811286  0.27687258     0.15200
H2047       H  0.18403971  0.66274841  0.38350441     0.14900
N2048       N  0.20156189  0.70997014  0.36018978     0.74000
O2049       O  0.17984684  0.61142775  0.27662901    -0.39500
O2050       O  0.20663921  0.60985583  0.30964585    -0.39400
O2051       O  0.18113821  0.71239250  0.36151731    -0.40100
O2052       O  0.22135219  0.72420520  0.37688663    -0.40200
C2053       C  0.18692302  0.50055768  0.33024194    -0.12500
C2054       C  0.21284495  0.51574035  0.31787634     0.04500
C2055       C  0.22716198  0.54361344  0.32285386    -0.07800
C2056       C  0.21541562  0.55552371  0.33989539    -0.08500
C2057       C  0.18939153  0.54020328  0.35195417    -0.03100
C2058       C  0.17516785  0.51239219  0.34695426     0.03800
N2059       N  0.14872183  0.49573614  0.35899644     0.66300
H2060       H  0.17593705  0.98008626  0.32814877     0.15200
H2061       H  0.22645399  0.57691144  0.34311568     0.14900
N2062       N  0.25365585  0.56010867  0.31096036     0.74000
O2063       O  0.12966830  0.98696711  0.34060449    -0.39500
O2064       O  0.14560034  0.49001619  0.38661189    -0.39400
O2065       O  0.25775964  0.57648814  0.29028889    -0.40100
O2066       O  0.27330049  0.56007355  0.32294833    -0.40200
C2067       C  0.06328314  0.97242290  0.36603395    -0.12500
C2068       C  0.07407417  0.98434650  0.39396530     0.04500
C2069       C  0.06186624  0.96964934  0.42055088    -0.07800
C2070       C  0.03864815  0.94472622  0.41857020    -0.08500
C2071       C  0.02573531  0.93446298  0.39099068    -0.03100
C2072       C  0.03888979  0.94809808  0.36424513     0.03800
N2073       N  0.02745108  0.93846973  0.33521211     0.66300
H2074       H  0.07264386  0.98301268  0.34538872     0.15200
H2075       H  0.02929428  0.93462421  0.43946044     0.14900
N2076       N  0.06779175  0.48031191  0.45535061     0.74000
O2077       O  0.00884508  0.94198622  0.32638399    -0.39500
O2078       O  0.04054398  0.93361242  0.31594915    -0.39400
O2079       O  0.06173093  0.49726895  0.46377935    -0.40100
O2080       O  0.07399167  0.46888024  0.47492706    -0.40200
C2081       C  0.03028358  0.85525903  0.66728328    -0.12500
C2082       C  0.04734290  0.85948375  0.64251678     0.04500
C2083       C  0.05308136  0.83930483  0.63485171    -0.07800
C2084       C  0.04124124  0.81546822  0.65132243    -0.08500
C2085       C  0.02378393  0.81130724  0.67545172    -0.03100
C2086       C  0.01860433  0.83150752  0.68361524     0.03800
N2087       N  0.00021526  0.82745888  0.70748412     0.66300
H2088       H  0.02557460  0.87030775  0.67388260     0.15200
H2089       H  0.51547933  0.83058188  0.71126231     0.14900
N2090       N  0.06962886  0.84199038  0.60948543     0.74000
O2091       O  0.00581335  0.82499238  0.73418209    -0.39500
O2092       O  0.97756796  0.82446645  0.70159085    -0.39400
O2093       O  0.51571836  0.87609990  0.70173473    -0.40100
O2094       O  0.55863697  0.90026021  0.69246278    -0.40200
C2095       C  0.17122275  0.96798181  0.62479864    -0.12500
C2096       C  0.14680320  0.95874822  0.64036077     0.04500
C2097       C  0.14730930  0.95968754  0.67221399    -0.07800
C2098       C  0.17172099  0.96983878  0.68756677    -0.08500
C2099       C  0.19617403  0.97949199  0.67199865    -0.03100
C2100       C  0.19568732  0.97809540  0.64011247     0.03800
N2101       N  0.21614200  0.48877074  0.63277854     0.66300
H2102       H  0.17136081  0.96713191  0.60044183     0.15200
H2103       H  0.17154670  0.97077956  0.71191346     0.14900
N2104       N  0.12319402  0.95023163  0.68948280     0.74000
O2105       O  0.22725876  0.47502125  0.63364085    -0.39500
O2106       O  0.22495146  0.50820146  0.61492528    -0.39400
O2107       O  0.11157671  0.92702605  0.70027269    -0.40100
O2108       O  0.11552129  0.96612648  0.69719801    -0.40200
C2109       C  0.47396534  0.91213794  0.62652671    -0.12500
C2110       C  0.48338974  0.90979930  0.59796781     0.04500
C2111       C  0.46574348  0.90210490  0.57321882    -0.07800
C2112       C  0.44043634  0.89894995  0.57715280    -0.08500
C2113       C  0.43239370  0.90478413  0.60468160    -0.03100
C2114       C  0.44855920  0.90951997  0.63023939     0.03800
N2115       N  0.43988453  0.91231100  0.65971219     0.66300
H2116       H  0.99408611  0.93435683  0.64182977     0.15200
H2117       H  0.42827572  0.89480601  0.55722674     0.14900
N2118       N  0.47377396  0.90012896  0.54316233     0.74000
O2119       O  0.45665762  0.92857594  0.67833611    -0.39500
O2120       O  0.41631447  0.89595248  0.66860009    -0.39400
O2121       O  0.45933502  0.87913886  0.52830572    -0.40100
O2122       O  0.48957871  0.92119469  0.52906199    -0.40200
C2123       C  0.14358933  0.00975274  0.52832560    -0.12500
C2124       C  0.13207116  0.98414287  0.51558802     0.04500
C2125       C  0.13557509  0.98173812  0.48449258    -0.07800
C2126       C  0.14458344  0.50258811  0.46785223    -0.08500
C2127       C  0.15482617  0.52803408  0.48045896    -0.03100
C2128       C  0.15709497  0.53095256  0.51186218     0.03800
N2129       N  0.16900194  0.55675273  0.52540314     0.66300
H2130       H  0.14124292  0.01187754  0.55223663     0.15200
H2131       H  0.14304565  0.50036172  0.44364963     0.14900
N2132       N  0.12598591  0.95609965  0.47087383     0.74000
O2133       O  0.15471807  0.56658289  0.53248111    -0.39500
O2134       O  0.19351656  0.56887982  0.53237612    -0.39400
O2135       O  0.11635160  0.95139396  0.44468131    -0.40100
O2136       O  0.12991949  0.93914593  0.48357685    -0.40200
C2137       C  0.03231756  0.87558190  0.47771593    -0.12500
C2138       C  0.02893185  0.87197838  0.50890657     0.04500
C2139       C  0.00327865  0.85361005  0.52041777    -0.07800
C2140       C  0.47902198  0.84328526  0.50234574    -0.08500
C2141       C  0.48239478  0.84844033  0.47132517    -0.03100
C2142       C  0.50872485  0.86179615  0.45907754     0.03800
N2143       N  0.51317382  0.86558292  0.42712680     0.66300
H2144       H  0.05214726  0.88931024  0.46877405     0.15200
H2145       H  0.45890111  0.83275505  0.51178879     0.14900
N2146       N  0.99966721  0.84714305  0.55174040     0.74000
O2147       O  0.03592679  0.88680390  0.41601863    -0.39500
O2148       O  0.49792734  0.84734030  0.40918130    -0.39400
O2149       O  0.99206840  0.85887846  0.56961163    -0.40100
O2150       O  0.00631238  0.83125716  0.56197695    -0.40200
C2151       C  0.15284340  0.66187097  0.66502604    -0.12500
C2152       C  0.14065043  0.67662396  0.65810028     0.04500
C2153       C  0.15267891  0.70324208  0.66806878    -0.07800
C2154       C  0.17661216  0.71463356  0.68452274    -0.08500
C2155       C  0.18924804  0.70009622  0.69068628    -0.03100
C2156       C  0.17693214  0.67329360  0.68105146     0.03800
N2157       N  0.18854766  0.65734352  0.68748645     0.66300
H2158       H  0.14372676  0.64134556  0.65766291     0.15200
H2159       H  0.18587095  0.73526179  0.69149893     0.14900
N2160       N  0.14069538  0.71885306  0.66192925     0.74000
O2161       O  0.19131834  0.65245136  0.71439404    -0.39500
O2162       O  0.19460406  0.64684634  0.66628648    -0.39400
O2163       O  0.12702479  0.72198209  0.68204835    -0.40100
O2164       O  0.14677253  0.73237505  0.63807774    -0.40200
C2165       C  0.03367726  0.69446438  0.63122119    -0.12500
C2166       C  0.04046618  0.67912199  0.64917206     0.04500
C2167       C  0.03493426  0.67759887  0.68041925    -0.07800
C2168       C  0.02340785  0.69167215  0.69293580    -0.08500
C2169       C  0.01668812  0.70706152  0.67487300    -0.03100
C2170       C  0.02203760  0.70832346  0.64355458     0.03800
N2171       N  0.01611461  0.72383742  0.62376798     0.66300
H2172       H  0.03753177  0.69591353  0.60719615     0.15200
H2173       H  0.52508912  0.69653478  0.71977604     0.14900
N2174       N  0.04077477  0.66183578  0.69981539     0.74000
O2175       O  0.03033702  0.74890854  0.62435917    -0.39500
O2176       O  0.99901839  0.71253281  0.60320923    -0.39400
O2177       O  0.06085086  0.67298368  0.71693430    -0.40100
O2178       O  0.53545957  0.65094860  0.71758196    -0.40200
C2179       C  0.44236865  0.52621059  0.59237698    -0.12500
C2180       C  0.43174364  0.51186358  0.61898787     0.04500
C2181       C  0.44401990  0.52372863  0.64661814    -0.07800
C2182       C  0.46854285  0.54833735  0.64652077    -0.08500
C2183       C  0.48090609  0.56083177  0.61921662    -0.03100
C2184       C  0.46690053  0.54993730  0.59203469     0.03800
N2185       N  0.47868796  0.56084394  0.56335936     0.66300
H2186       H  0.43289323  0.51754972  0.57102693     0.15200
H2187       H  0.98037775  0.55690783  0.65550555     0.14900
N2188       N  0.47504579  0.98465568  0.61992592     0.74000
O2189       O  0.49021085  0.55076556  0.54889275    -0.39500
O2190       O  0.47089001  0.57429234  0.54929347    -0.39400
O2191       O  0.48696103  0.98066648  0.64104967    -0.40100
O2192       O  0.47308368  0.97363636  0.59480103    -0.40200
C2193       C  0.08443738  0.55090608  0.57931445    -0.12500
C2194       C  0.08099500  0.56059216  0.60696391     0.04500
C2195       C  0.07739590  0.54561051  0.63328943    -0.07800
C2196       C  0.07640536  0.52107976  0.63119129    -0.08500
C2197       C  0.07735845  0.51054988  0.60302099    -0.03100
C2198       C  0.08153228  0.52588055  0.57691628     0.03800
N2199       N  0.08035498  0.51543873  0.54738490     0.66300
H2200       H  0.08700177  0.56168508  0.55861769     0.15200
H2201       H  0.08019934  0.01447102  0.64717720     0.14900
N2202       N  0.07296152  0.55404897  0.66189133     0.74000
O2203       O  0.05828798  0.50424349  0.53357966    -0.39500
O2204       O  0.10177639  0.52304422  0.53271303    -0.39400
O2205       O  0.04927479  0.54620703  0.67065585    -0.40100
O2206       O  0.09209833  0.56555929  0.68019808    -0.40200
C2207       C  0.12731038  0.65283747  0.49111364    -0.12500
C2208       C  0.13071106  0.64940705  0.52160656     0.04500
C2209       C  0.14648755  0.63820595  0.52930942    -0.07800
C2210       C  0.15595685  0.62807399  0.50646193    -0.08500
C2211       C  0.14995056  0.62897553  0.47610834    -0.03100
C2212       C  0.13683221  0.64288428  0.46846405     0.03800
N2213       N  0.13048465  0.64448351  0.43783406     0.66300
H2214       H  0.11480819  0.66088595  0.48488249     0.15200
H2215       H  0.16570871  0.61717744  0.51266995     0.14900
N2216       N  0.15016048  0.63407731  0.56024353     0.74000
O2217       O  0.10656924  0.63057587  0.42889444    -0.39500
O2218       O  0.14783647  0.66260584  0.42113686    -0.39400
O2219       O  0.14632275  0.61183643  0.56880567    -0.40100
O2220       O  0.15828755  0.65299328  0.57888067    -0.40200
C2221       C  0.48779591  0.69094295  0.34478728    -0.12500
C2222       C  0.48523638  0.69027535  0.31323116     0.04500
C2223       C  0.46950442  0.66516687  0.29917077    -0.07800
C2224       C  0.45852657  0.64178629  0.31626136    -0.08500
C2225       C  0.46167619  0.64233393  0.34764308    -0.03100
C2226       C  0.47602854  0.66741741  0.36205276     0.03800
N2227       N  0.99450344  0.66537436  0.38578106     0.66300
H2228       H  0.00951383  0.70625078  0.35009310     0.15200
H2229       H  0.44692994  0.62289235  0.30471650     0.14900
N2230       N  0.46423434  0.66281297  0.26755813     0.74000
O2231       O  0.01870171  0.67145009  0.38766526    -0.39500
O2232       O  0.47237390  0.68317944  0.40916188    -0.39400
O2233       O  0.47148776  0.64979816  0.25126891    -0.40100
O2234       O  0.44752319  0.66853005  0.25738829    -0.40200
C2235       C  0.35993255  0.54998464  0.31888023    -0.12500
C2236       C  0.36085042  0.54137702  0.34785219     0.04500
C2237       C  0.33726097  0.52076581  0.36105071    -0.07800
C2238       C  0.31314705  0.50860970  0.34486128    -0.08500
C2239       C  0.31210967  0.51674641  0.31537474    -0.03100
C2240       C  0.33587840  0.53828088  0.30275824     0.03800
N2241       N  0.33604881  0.54874844  0.27371928     0.66300
H2242       H  0.37809398  0.56593234  0.30866058     0.15200
H2243       H  0.29572058  0.99734755  0.35903711     0.14900
N2244       N  0.33889408  0.01497212  0.39295645     0.74000
O2245       O  0.32658795  0.56383020  0.27058787    -0.39500
O2246       O  0.34880660  0.54591478  0.25225950    -0.39400
O2247       O  0.33862304  0.03031620  0.41287123    -0.40100
O2248       O  0.33978983  0.99467345  0.40052037    -0.40200
C2249       C  0.43551764  0.97457740  0.35651041    -0.12500
C2250       C  0.42752931  0.98255887  0.38262858     0.04500
C2251       C  0.41815028  0.96528352  0.40775993    -0.07800
C2252       C  0.41993288  0.94234665  0.40754637    -0.08500
C2253       C  0.42955256  0.93536029  0.38224322    -0.03100
C2254       C  0.43644644  0.95104253  0.35613028     0.03800
N2255       N  0.44744423  0.94505801  0.33045425     0.66300
H2256       H  0.44924209  0.49582826  0.33403768     0.15200
H2257       H  0.41417355  0.93005422  0.42754902     0.14900
N2258       N  0.40714032  0.97094776  0.43381062     0.74000
O2259       O  0.47236662  0.95389256  0.32897393    -0.39500
O2260       O  0.43305919  0.93437661  0.30760936    -0.39400
O2261       O  0.38766946  0.97470533  0.43100508    -0.40100
O2262       O  0.41507830  0.96973404  0.45978184    -0.40200
C2263       C  0.03611150  0.64526666  0.48997861    -0.12500
C2264       C  0.02728307  0.64410111  0.51954170     0.04500
C2265       C  0.00000422  0.63568592  0.52500380    -0.07800
C2266       C  0.48039189  0.62302085  0.50268000    -0.08500
C2267       C  0.48863134  0.61895887  0.47429393    -0.03100
C2268       C  0.01771133  0.63391582  0.46648167     0.03800
N2269       N  0.52595081  0.62667262  0.44026673     0.66300
H2270       H  0.05700653  0.65159790  0.48564655     0.15200
H2271       H  0.45940292  0.61635003  0.50671759     0.14900
N2272       N  0.99047979  0.63569069  0.55488401     0.74000
O2273       O  0.04490912  0.65358891  0.42477198    -0.39500
O2274       O  0.53586833  0.61203930  0.43620577    -0.39400
O2275       O  0.97948151  0.64911450  0.56066361    -0.40100
O2276       O  0.49377230  0.62596217  0.57947759    -0.40200
C2277       C  0.36927616  0.00292971  0.47494041    -0.12500
C2278       C  0.38089949  0.51990038  0.47733571     0.04500
C2279       C  0.38412756  0.52624087  0.50818041    -0.07800
C2280       C  0.37397759  0.50571176  0.52963111    -0.08500
C2281       C  0.37168133  0.98478240  0.52331484    -0.03100
C2282       C  0.35849724  0.98166817  0.49573320     0.03800
N2283       N  0.33602320  0.95653516  0.48722079     0.66300
H2284       H  0.36060610  0.99960507  0.45278034     0.15200
H2285       H  0.37884974  0.51077910  0.55313844     0.14900
N2286       N  0.39897776  0.55344116  0.51779930     0.74000
O2287       O  0.33926486  0.93724712  0.48102261    -0.39500
O2288       O  0.31362306  0.95452653  0.48239728    -0.39400
O2289       O  0.39244412  0.56972063  0.50855517    -0.40100
O2290       O  0.41665964  0.56061279  0.53782802    -0.40200
C2291       C  0.01567982  0.54355718  0.37577089    -0.12500
C2292       C  0.01601900  0.56749450  0.37181570     0.04500
C2293       C  0.04090273  0.59129891  0.36672256    -0.07800
C2294       C  0.06494388  0.59073896  0.36937785    -0.08500
C2295       C  0.06424653  0.56693998  0.37608175    -0.03100
C2296       C  0.03934193  0.54302884  0.37765964     0.03800
N2297       N  0.03784390  0.51796082  0.38096046     0.66300
H2298       H  0.49640450  0.52963666  0.36261423     0.15200
H2299       H  0.08419701  0.60901140  0.36744545     0.14900
N2300       N  0.04229617  0.61609116  0.36044069     0.74000
O2301       O  0.02289766  0.50179038  0.40097012    -0.39500
O2302       O  0.04729117  0.51006656  0.36040050    -0.39400
O2303       O  0.06264926  0.63782525  0.36821276    -0.40100
O2304       O  0.02547631  0.61665819  0.34310020    -0.40200
O2305       O  0.89748918  0.05526791  0.43645582    -0.82000
C2306       C  0.99274941  0.07052203  0.38044437     0.97400
O2307       O  0.98154123  0.05847359  0.40448348    -0.71100
O2308       O  0.97670620  0.09011776  0.44152011    -0.74700
Al2309     Al  0.95276875  0.05578486  0.42828852     1.49000
C2310       C  0.97057467  0.10645773  0.45160119     0.92600
O2311       O  0.94621276  0.11499516  0.38903118    -0.80900
O2312       O  0.90553731  0.04362670  0.35562025    -0.74500
Al2313     Al  0.92311822  0.08465109  0.41239617     1.90100
O2314       O  0.94781099  0.09467230  0.34796766    -0.73600
O2315       O  0.93848075  0.02621326  0.36839611    -0.73400
O2316       O  0.98105524  0.07837997  0.36327369    -0.79100
O2317       O  0.92966255  0.02038370  0.41671166    -0.77300
O2318       O  0.93962437  0.06745882  0.40065073    -1.13400
O2319       O  0.92740670  0.04991555  0.45956004    -0.72600
C2320       C  0.90348105  0.04433664  0.45674783     0.98100
C2321       C  0.95212881  0.11561053  0.36155066     0.94500
Al2322     Al  0.94278552  0.06128295  0.36193566     1.55600
O2323       O  0.94761555  0.10344541  0.44613127    -0.77200
C2324       C  0.93139650  0.01138329  0.39153445     0.98700
C2325       C  0.88968811  0.05164239  0.36234371     0.93600
O2326       O  0.89606310  0.07000143  0.38153001    -0.82500
O2327       O  0.61168196  0.16081668  0.56078627    -0.82000
C2328       C  0.51470973  0.07996978  0.61508585     0.97400
O2329       O  0.52522723  0.08030447  0.59011902    -0.71100
O2330       O  0.53128448  0.11919950  0.55563763    -0.74700
Al2331     Al  0.55416178  0.10687280  0.56722404     1.49000
C2332       C  0.54024698  0.14196536  0.54440330     0.92600
O2333       O  0.56371848  0.17270454  0.60866047    -0.80900
O2334       O  0.60205223  0.14050194  0.64089945    -0.74500
Al2335     Al  0.58643269  0.16525921  0.58531774     1.90100
O2336       O  0.55983558  0.14926778  0.64890729    -0.73600
O2337       O  0.56938729  0.09071579  0.62593607    -0.73400
O2338       O  0.52653928  0.09924494  0.63301455    -0.79100
O2339       O  0.57595590  0.09304405  0.57698510    -0.77300
O2340       O  0.56843575  0.13109300  0.59586829    -1.13400
O2341       O  0.57986372  0.12679933  0.53649763    -0.72600
C2342       C  0.60417536  0.14487903  0.53876582     0.98100
C2343       C  0.55689405  0.16686295  0.63591052     0.94500
Al2344     Al  0.56488917  0.12098063  0.63412870     1.55600
O2345       O  0.56359206  0.16097220  0.55102875    -0.77200
C2346       C  0.57610429  0.08327531  0.60215596     0.98700
C2347       C  0.61809494  0.16474014  0.63574908     0.93600
O2348       O  0.61241016  0.17714772  0.61693910    -0.82500
O2349       O  0.55805606  0.39313119  0.55162753    -0.82000
C2350       C  0.56945625  0.48225648  0.61636206     0.97400
O2351       O  0.55636065  0.47185173  0.59273039    -0.71100
O2352       O  0.58790791  0.47056395  0.55250274    -0.74700
Al2353     Al  0.55406614  0.44510868  0.56650144     1.49000
C2354       C  0.60583046  0.46693747  0.54133673     0.92600
O2355       O  0.61750236  0.44116355  0.60127023    -0.80900
O2356       O  0.54603534  0.39567148  0.63505887    -0.74500
Al2357     Al  0.58695002  0.41819043  0.57715769     1.90100
O2358       O  0.59635224  0.43848595  0.64326398    -0.73600
O2359       O  0.52636134  0.42717297  0.62741879    -0.73400
O2360       O  0.57816135  0.47040838  0.63192295    -0.79100
O2361       O  0.51869181  0.42083940  0.57902131    -0.77300
O2362       O  0.56779347  0.43187303  0.59166618    -1.13400
O2363       O  0.54829560  0.42178632  0.53355275    -0.72600
C2364       C  0.54539464  0.39894794  0.53319280     0.98100
C2365       C  0.61797321  0.44542009  0.62927279     0.94500
Al2366     Al  0.56220779  0.43270383  0.63109686     1.55600
O2367       O  0.60474069  0.44484079  0.54507837    -0.77200
C2368       C  0.51034296  0.42032099  0.60542648     0.98700
C2369       C  0.55543675  0.38150857  0.62635049     0.93600
O2370       O  0.57356519  0.38954178  0.60621317    -0.82500
O2371       O  0.66444323  0.10599540  0.44345858    -0.82000
C2372       C  0.59443580  0.01049328  0.39015121     0.97400
O2373       O  0.60417630  0.02101164  0.41507196    -0.71100
O2374       O  0.63297387  0.05321013  0.45779859    -0.74700
Al2375     Al  0.61364557  0.05583212  0.42430278     1.49000
C2376       C  0.65186277  0.04844444  0.45620625     0.92600
O2377       O  0.68926454  0.07462504  0.38127494    -0.80900
O2378       O  0.66180924  0.09488160  0.34470146    -0.74500
Al2379     Al  0.67364694  0.08807801  0.41092860     1.90100
O2380       O  0.65370322  0.04488190  0.35670080    -0.73600
O2381       O  0.61051754  0.07590188  0.35760639    -0.73400
O2382       O  0.60213335  0.02461541  0.36634451    -0.79100
O2383       O  0.58720471  0.05494795  0.39770481    -0.77300
O2384       O  0.64023283  0.06853943  0.39793616    -1.13400
O2385       O  0.62150338  0.08972895  0.43521252    -0.72600
C2386       C  0.64301693  0.10701991  0.44715031     0.98100
C2387       C  0.67786337  0.05455251  0.36384767     0.94500
Al2388     Al  0.63286111  0.06076019  0.35928668     1.55600
O2389       O  0.66987840  0.05978986  0.43636595    -0.77200
C2390       C  0.58940508  0.06678113  0.37322044     0.98700
C2391       C  0.67646763  0.11674843  0.35833272     0.93600
O2392       O  0.68039460  0.11719056  0.38628697    -0.82500
O2393       O  0.94773486  0.33103526  0.43528840    -0.82000
C2394       C  0.93685362  0.41473162  0.38806610     0.97400
O2395       O  0.94867829  0.41467907  0.41166343    -0.71100
O2396       O  0.91523740  0.37613698  0.44562655    -0.74700
Al2397     Al  0.94998765  0.38704481  0.43257534     1.49000
C2398       C  0.89723749  0.35296215  0.45276511     0.92600
O2399       O  0.88925314  0.32346753  0.38801777    -0.80900
O2400       O  0.96187826  0.35460615  0.35647873    -0.74500
Al2401     Al  0.91894586  0.32891259  0.41145643     1.90100
O2402       O  0.91146329  0.34786512  0.34890848    -0.73600
O2403       O  0.98154065  0.40419863  0.37328799    -0.73400
O2404       O  0.93049237  0.39695517  0.36834413    -0.79100
O2405       O  0.98587408  0.40014448  0.42153832    -0.77300
O2406       O  0.93799815  0.36351140  0.40271419    -1.13400
O2407       O  0.95427754  0.36541597  0.46152619    -0.72600
C2408       C  0.95976833  0.34753941  0.45620252     0.98100
C2409       C  0.88960187  0.33058522  0.36114877     0.94500
Al2410     Al  0.94567767  0.37481729  0.36481523     1.55600
O2411       O  0.89961773  0.33306337  0.44591237    -0.77200
C2412       C  0.99609251  0.41066990  0.39653580     0.98700
C2413       C  0.95273268  0.33022274  0.36075435     0.93600
O2414       O  0.93325460  0.31738597  0.37883112    -0.82500
O2415       O  0.83713569  0.43584237  0.54146472    -0.82000
C2416       C  0.91168623  0.41839267  0.59685608     0.97400
O2417       O  0.90220615  0.41751819  0.57116984    -0.71100
O2418       O  0.87027495  0.41469650  0.52815735    -0.74700
Al2419     Al  0.89025998  0.44009092  0.55889158     1.49000
C2420       C  0.85136593  0.39104842  0.53126548     0.92600
O2421       O  0.81768903  0.38477603  0.60742012    -0.80900
O2422       O  0.84611124  0.43843879  0.63894719    -0.74500
Al2423     Al  0.83062998  0.41126922  0.57556694     1.90100
O2424       O  0.85340822  0.39568211  0.63440272    -0.73600
O2425       O  0.89615888  0.47026350  0.62189373    -0.73400
O2426       O  0.90455623  0.42701163  0.61934107    -0.79100
O2427       O  0.91704014  0.46875936  0.58154516    -0.77300
O2428       O  0.86478525  0.42778989  0.58693372    -1.13400
O2429       O  0.88058413  0.46382628  0.54529059    -0.72600
C2430       C  0.85796704  0.45850994  0.53598780     0.98100
C2431       C  0.82923891  0.37940677  0.62797795     0.94500
Al2432     Al  0.87417538  0.43235572  0.62554787     1.55600
O2433       O  0.83417678  0.38539158  0.55183606    -0.77200
C2434       C  0.91540082  0.48157623  0.60349713     0.98700
C2435       C  0.82904015  0.44176944  0.62515270     0.93600
O2436       O  0.82311583  0.43425812  0.59823994    -0.82500
O2437       O  0.77726562  0.99835552  0.21228631    -0.82000
C2438       C  0.68026196  0.42106615  0.26544997     0.97400
O2439       O  0.69051957  0.43125901  0.24036817    -0.71100
O2440       O  0.72159583  0.46508975  0.19964780    -0.74700
Al2441     Al  0.72630647  0.44402103  0.22933134     1.49000
C2442       C  0.71563160  0.48272941  0.20477238     0.92600
O2443       O  0.74587371  0.01569601  0.28019061    -0.80900
O2444       O  0.76577546  0.48603646  0.31127183    -0.74500
Al2445     Al  0.75899511  0.00318351  0.24744631     1.90100
O2446       O  0.71468659  0.47847430  0.30407958    -0.73600
O2447       O  0.74657268  0.43578343  0.29406360    -0.73400
O2448       O  0.69485984  0.42803903  0.28883840    -0.79100
O2449       O  0.72733345  0.41662506  0.25168301    -0.77300
O2450       O  0.73828485  0.46824334  0.25833683    -1.13400
O2451       O  0.76138726  0.45498645  0.21594228    -0.72600
C2452       C  0.77729142  0.47781858  0.20553578     0.98100
C2453       C  0.72697098  0.00351060  0.29903331     0.94500
Al2454     Al  0.73111898  0.45808099  0.29654172     1.55600
O2455       O  0.72704991  0.49926579  0.22576741    -0.77200
C2456       C  0.73842734  0.41654056  0.27591387     0.98700
C2457       C  0.78949693  0.00357940  0.29702875     0.93600
O2458       O  0.78910955  0.00947252  0.26986123    -0.82500
O2459       O  0.55944523  0.38680448  0.10575126    -0.82000
C2460       C  0.65954019  0.40688947  0.05879596     0.97400
O2461       O  0.64585439  0.39197658  0.08016669    -0.71100
O2462       O  0.63699672  0.42007903  0.11840095    -0.74700
Al2463     Al  0.61485561  0.38680207  0.10075223     1.49000
C2464       C  0.63037794  0.43636687  0.12746982     0.92600
O2465       O  0.61031372  0.44870262  0.06190293    -0.80900
O2466       O  0.57374183  0.37972028  0.02350727    -0.74500
Al2467     Al  0.58647713  0.41703605  0.08353621     1.90100
O2468       O  0.61621817  0.43083018  0.02132341    -0.73600
O2469       O  0.60582316  0.36158463  0.03809936    -0.73400
O2470       O  0.64869907  0.41414184  0.03952703    -0.79100
O2471       O  0.59365905  0.35222357  0.08531762    -0.77300
O2472       O  0.60397555  0.40047285  0.07256121    -1.13400
O2473       O  0.58682362  0.37797235  0.12912069    -0.72600
C2474       C  0.56358385  0.37391613  0.12539906     0.98100
C2475       C  0.61789443  0.45074757  0.03480492     0.94500
Al2476     Al  0.61050653  0.39692856  0.03383873     1.55600
O2477       O  0.60864446  0.43458373  0.11891429    -0.77200
C2478       C  0.59634289  0.34485989  0.05944316     0.98700
C2479       C  0.55688869  0.38649821  0.03041336     0.93600
O2480       O  0.56156546  0.40329299  0.05102871    -0.82500
O2481       O  0.50108036  0.27580143  0.22250639    -0.82000
C2482       C  0.58387496  0.25990987  0.26414219     0.97400
O2483       O  0.58395031  0.27354879  0.24244269    -0.71100
O2484       O  0.54380265  0.24080812  0.20965470    -0.74700
Al2485     Al  0.55596627  0.27533028  0.22318548     1.49000
C2486       C  0.52005549  0.22397005  0.20245503     0.92600
O2487       O  0.99108482  0.21450871  0.26690222    -0.80900
O2488       O  0.52531799  0.28570556  0.30227301    -0.74500
Al2489     Al  0.99719006  0.24449141  0.24449757     1.90100
O2490       O  0.51671768  0.23474208  0.30577185    -0.73600
O2491       O  0.57510962  0.30454531  0.28307429    -0.73400
O2492       O  0.56601483  0.25259680  0.28435760    -0.79100
O2493       O  0.56998212  0.31081312  0.23545613    -0.77300
O2494       O  0.53260019  0.26329005  0.25340829    -1.13400
O2495       O  0.53442274  0.28036418  0.19498130    -0.72600
C2496       C  0.51704465  0.28657864  0.20067299     0.98100
C2497       C  0.99862443  0.21399995  0.29325862     0.94500
Al2498     Al  0.54466013  0.26889058  0.29094515     1.55600
O2499       O  0.50065631  0.22728998  0.20981498    -0.77200
C2500       C  0.58149132  0.31982129  0.26035335     0.98700
C2501       C  0.00035536  0.27716562  0.29649611     0.93600
O2502       O  0.98687420  0.25864284  0.27791812    -0.82500
O2503       O  0.61536526  0.16847352  0.10623914    -0.82000
C2504       C  0.59806143  0.24756268  0.05747756     0.97400
O2505       O  0.61215964  0.24860036  0.07919164    -0.71100
O2506       O  0.57918036  0.21014002  0.11440287    -0.74700
Al2507     Al  0.61415379  0.22200410  0.10048413     1.49000
C2508       C  0.56227196  0.18672745  0.12249107     0.92600
O2509       O  0.55427693  0.15389084  0.05900034    -0.80900
O2510       O  0.62374299  0.18774547  0.02282428    -0.74500
Al2511     Al  0.58527598  0.16327463  0.08238876     1.90100
O2512       O  0.57291498  0.17957554  0.01976511    -0.73600
O2513       O  0.64277189  0.23775843  0.03954578    -0.73400
O2514       O  0.59063514  0.22918738  0.03817068    -0.79100
O2515       O  0.65004589  0.23574092  0.08771995    -0.77300
O2516       O  0.60194826  0.19740070  0.07168387    -1.13400
O2517       O  0.61960195  0.20255903  0.13086582    -0.72600
C2518       C  0.62609963  0.18534565  0.12704553     0.98100
C2519       C  0.55275741  0.16025105  0.03229961     0.94500
Al2520     Al  0.60705442  0.20762144  0.03323614     1.55600
O2521       O  0.56569865  0.16740164  0.11612581    -0.77200
C2522       C  0.65862636  0.24541562  0.06178334     0.98700
C2523       C  0.61715905  0.16434829  0.03020276     0.93600
O2524       O  0.60050290  0.15250972  0.05121977    -0.82500
O2525       O  0.83846670  0.44671522  0.10018822    -0.82000
C2526       C  0.75690897  0.34585759  0.05776970     0.97400
O2527       O  0.75620076  0.35973347  0.07901936    -0.71100
O2528       O  0.79532913  0.36903107  0.11433167    -0.74700
Al2529     Al  0.78327080  0.39054281  0.09829318     1.49000
C2530       C  0.81883583  0.37705046  0.12316075     0.92600
O2531       O  0.84965536  0.39596152  0.05702989    -0.80900
O2532       O  0.81611244  0.43053179  0.01895406    -0.74500
Al2533     Al  0.84208257  0.41985487  0.07831211     1.90100
O2534       O  0.82442608  0.38818607  0.01732678    -0.73600
O2535       O  0.76580843  0.39926771  0.03662912    -0.73400
O2536       O  0.77479115  0.35644949  0.03758961    -0.79100
O2537       O  0.76945706  0.41122798  0.08408891    -0.77300
O2538       O  0.80739105  0.40154140  0.06884823    -1.13400
O2539       O  0.80354936  0.41826457  0.12624853    -0.72600
C2540       C  0.82200889  0.44175833  0.12149026     0.98100
C2541       C  0.84291823  0.38685071  0.03065624     0.94500
Al2542     Al  0.79631208  0.39428210  0.03071625     1.55600
O2543       O  0.83842690  0.39919305  0.11435280    -0.77200
C2544       C  0.75907038  0.40872925  0.05854614     0.98700
C2545       C  0.84023893  0.44758676  0.02461486     0.93600
O2546       O  0.85277899  0.44347038  0.04491489    -0.82500
O2547       O  0.72775912  0.22637300  0.22073739    -0.82000
C2548       C  0.74029897  0.31989285  0.27602830     0.97400
O2549       O  0.72896345  0.30879245  0.25180983    -0.71100
O2550       O  0.76288510  0.30511589  0.21630429    -0.74700
Al2551     Al  0.72765661  0.28084871  0.22841454     1.49000
C2552       C  0.77977081  0.29920177  0.20684271     0.92600
O2553       O  0.78770565  0.27492990  0.26898697    -0.80900
O2554       O  0.71579457  0.23336670  0.30178567    -0.74500
Al2555     Al  0.75723382  0.25183630  0.24515945     1.90100
O2556       O  0.76664950  0.27730534  0.30910139    -0.73600
O2557       O  0.69657107  0.26434805  0.28802381    -0.73400
O2558       O  0.74817017  0.30852817  0.29368828    -0.79100
O2559       O  0.69142788  0.25768257  0.23921414    -0.77300
O2560       O  0.73922098  0.26775189  0.25649612    -1.13400
O2561       O  0.72299112  0.25617461  0.19700487    -0.72600
C2562       C  0.71700401  0.23236202  0.20010101     0.98100
C2563       C  0.78809914  0.28163668  0.29618414     0.94500
Al2564     Al  0.73240928  0.27049919  0.29501830     1.55600
O2565       O  0.77641849  0.27629844  0.21185395    -0.77200
C2566       C  0.68171103  0.25737873  0.26491435     0.98700
C2567       C  0.72408342  0.21780365  0.29491426     0.93600
O2568       O  0.74273066  0.22477615  0.27573839    -0.82500
O2569       O  0.88682090  0.05829890  0.88939538    -0.82000
C2570       C  0.91288193  0.15356741  0.95305437     0.97400
O2571       O  0.89992013  0.14479173  0.92900960    -0.71100
O2572       O  0.92428555  0.13626139  0.88544402    -0.74700
Al2573     Al  0.89046648  0.11500355  0.90390443     1.49000
C2574       C  0.93843931  0.12851763  0.87243551     0.92600
O2575       O  0.95078466  0.10455110  0.93397041    -0.80900
O2576       O  0.87982263  0.06349920  0.97198251    -0.74500
Al2577     Al  0.91818416  0.08234311  0.91252191     1.90100
O2578       O  0.93208542  0.10348682  0.97755938    -0.73600
O2579       O  0.86469124  0.09902367  0.96770121    -0.73400
O2580       O  0.91755383  0.13894785  0.96955830    -0.79100
O2581       O  0.85512698  0.09613479  0.91977081    -0.77300
O2582       O  0.90242017  0.09939868  0.92822281    -1.13400
O2583       O  0.87808766  0.08844483  0.87306441    -0.72600
C2584       C  0.87386565  0.06501704  0.87239728     0.98100
C2585       C  0.95261923  0.10887187  0.96203125     0.94500
Al2586     Al  0.89881585  0.10088825  0.96816401     1.55600
O2587       O  0.93508801  0.10587511  0.87830740    -0.77200
C2588       C  0.84853582  0.09558934  0.94695408     0.98700
C2589       C  0.88757530  0.04791351  0.96343300     0.93600
O2590       O  0.90533362  0.05490213  0.94307426    -0.82500
O2591       O  0.49913200  0.27666818  0.76650073    -0.82000
C2592       C  0.92243163  0.17866956  0.71427923     0.97400
O2593       O  0.91825573  0.19212301  0.73356213    -0.71100
O2594       O  0.95188141  0.20163193  0.77573074    -0.74700
Al2595     Al  0.94235179  0.22333019  0.75519491     1.49000
C2596       C  0.97442750  0.20659375  0.78497355     0.92600
O2597       O  0.51256587  0.22777882  0.72340452    -0.80900
O2598       O  0.98092252  0.26363812  0.68076488    -0.74500
Al2599     Al  0.50317650  0.25081590  0.74362175     1.90100
O2600       O  0.99178509  0.22398701  0.67975144    -0.73600
O2601       O  0.92991681  0.22938330  0.69083857    -0.73400
O2602       O  0.94232885  0.18981494  0.69661659    -0.79100
O2603       O  0.93000002  0.24391920  0.73636470    -0.77300
O2604       O  0.96953463  0.23421735  0.72948309    -1.13400
O2605       O  0.95955773  0.25137651  0.78355038    -0.72600
C2606       C  0.98139716  0.27315091  0.78402683     0.98100
C2607       C  0.50969547  0.22178719  0.69591849     0.94500
Al2608     Al  0.96204914  0.22740081  0.69030595     1.55600
O2609       O  0.49526173  0.22728917  0.77833771    -0.77200
C2610       C  0.92127815  0.23944816  0.70978514     0.98700
C2611       C  0.50526461  0.28107685  0.68902663     0.93600
O2612       O  0.51661067  0.27679217  0.71095776    -0.82500
O2613       O  0.94958692  0.32681658  0.89570560    -0.82000
C2614       C  0.85131691  0.24865676  0.94891522     0.97400
O2615       O  0.86541367  0.24463443  0.93027214    -0.71100
O2616       O  0.87397142  0.27733808  0.88689044    -0.74700
Al2617     Al  0.89653497  0.26895699  0.90823647     1.49000
C2618       C  0.87839698  0.29941745  0.87710534     0.92600
O2619       O  0.89949873  0.33830954  0.94051555    -0.80900
O2620       O  0.93720534  0.30964231  0.98210698    -0.74500
Al2621     Al  0.92300589  0.32952778  0.91934693     1.90100
O2622       O  0.89515617  0.31780667  0.98271924    -0.73600
O2623       O  0.90411538  0.25818653  0.97311147    -0.73400
O2624       O  0.86219290  0.26810037  0.96692634    -0.79100
O2625       O  0.91818505  0.25792736  0.92742600    -0.77300
O2626       O  0.90678946  0.29616777  0.93335672    -1.13400
O2627       O  0.92462652  0.28606237  0.87976931    -0.72600
C2628       C  0.94608607  0.30808912  0.87857475     0.98100
C2629       C  0.89213654  0.33420736  0.96769578     0.94500
Al2630     Al  0.90032088  0.28915921  0.97282782     1.55600
O2631       O  0.89896815  0.32107087  0.88525783    -0.77200
C2632       C  0.91480688  0.25003294  0.95431678     0.98700
C2633       C  0.95435559  0.33262107  0.97280604     0.93600
O2634       O  0.94950242  0.34321841  0.95076882    -0.82500
O2635       O  0.67102382  0.10919888  0.89079330    -0.82000
C2636       C  0.75464111  0.10312462  0.94842655     0.97400
O2637       O  0.75501558  0.11481156  0.92471046    -0.71100
O2638       O  0.71958206  0.07978056  0.88766254    -0.74700
Al2639     Al  0.72774742  0.11376881  0.90081576     1.49000
C2640       C  0.69722759  0.06239636  0.87703058     0.92600
O2641       O  0.66051981  0.05047564  0.94002175    -0.80900
O2642       O  0.68760474  0.11988330  0.97437187    -0.74500
Al2643     Al  0.66779287  0.08062211  0.91586567     1.90100
O2644       O  0.68333233  0.07110702  0.98037975    -0.73600
O2645       O  0.73904753  0.14263857  0.96106878    -0.73400
O2646       O  0.73416723  0.09277096  0.96518778    -0.79100
O2647       O  0.73776395  0.14869615  0.91252126    -0.77300
O2648       O  0.70164605  0.09990940  0.92819403    -1.13400
O2649       O  0.70803323  0.11698550  0.86876072    -0.72600
C2650       C  0.68855137  0.12068928  0.87045617     0.98100
C2651       C  0.66671094  0.04979894  0.96711764     0.94500
Al2652     Al  0.71009149  0.10601939  0.96705923     1.55600
O2653       O  0.67604901  0.06323498  0.88280979    -0.77200
C2654       C  0.74688019  0.15794682  0.93829846     0.98700
C2655       C  0.66385041  0.11134619  0.96620571     0.93600
O2656       O  0.65314158  0.09380472  0.94588853    -0.82500
O2657       O  0.77949074  0.50654562  0.77342814    -0.82000
C2658       C  0.76283165  0.07974321  0.70705950     0.97400
O2659       O  0.77414467  0.08174781  0.73162446    -0.71100
O2660       O  0.74172976  0.04428265  0.76785961    -0.74700
Al2661     Al  0.77763071  0.05750039  0.75581980     1.49000
C2662       C  0.72826213  0.02223264  0.78095126     0.92600
O2663       O  0.72674265  0.48792159  0.71111603    -0.80900
O2664       O  0.79304282  0.02127594  0.68439511    -0.74500
Al2665     Al  0.75509864  0.50125619  0.74032796     1.90100
O2666       O  0.74167243  0.01140459  0.67629396    -0.73600
O2667       O  0.81020127  0.07154200  0.69660534    -0.73400
O2668       O  0.75809273  0.06123742  0.68896216    -0.79100
O2669       O  0.81392832  0.07273543  0.74574951    -0.77300
O2670       O  0.76804628  0.03209097  0.72856472    -1.13400
O2671       O  0.78408716  0.03991794  0.78773935    -0.72600
C2672       C  0.79108704  0.02277461  0.78636928     0.98100
C2673       C  0.72063563  0.49886989  0.69084943     0.94500
Al2674     Al  0.77515419  0.04053519  0.68976030     1.55600
O2675       O  0.73308994  0.50951552  0.76550206    -0.77200
C2676       C  0.82432412  0.08075022  0.72013569     0.98700
C2677       C  0.78037473  0.49401238  0.68878843     0.93600
O2678       O  0.77500593  0.49030477  0.71658249    -0.82500
O2679       O  0.72775771  0.21796480  0.77104350    -0.82000
C2680       C  0.82358557  0.23762120  0.71126235     0.97400
O2681       O  0.81283036  0.22352937  0.73438525    -0.71100
O2682       O  0.80524066  0.24894356  0.77805788    -0.74700
Al2683     Al  0.78238847  0.21622330  0.75871823     1.49000
C2684       C  0.79935154  0.26517444  0.78925317     0.92600
O2685       O  0.77740358  0.27964123  0.72510264    -0.80900
O2686       O  0.73587403  0.20879649  0.68891918    -0.74500
Al2687     Al  0.75381910  0.24783211  0.74739233     1.90100
O2688       O  0.77632347  0.26026999  0.68244410    -0.73600
O2689       O  0.77032227  0.19296478  0.69494671    -0.73400
O2690       O  0.81103211  0.24514178  0.69495424    -0.79100
O2691       O  0.76094284  0.18159367  0.74212093    -0.77300
O2692       O  0.76984152  0.23059495  0.73342981    -1.13400
O2693       O  0.75475217  0.20554434  0.78876592    -0.72600
C2694       C  0.73213734  0.20382896  0.78874921     0.98100
C2695       C  0.78158534  0.28095294  0.69700301     0.94500
Al2696     Al  0.77301621  0.22718329  0.69378716     1.55600
O2697       O  0.77796308  0.26453234  0.78157939    -0.77200
C2698       C  0.76209903  0.17541376  0.71516673     0.98700
C2699       C  0.71972336  0.21601923  0.69716949     0.93600
O2700       O  0.72653515  0.23454983  0.71634658    -0.82500
C2701       C  0.73913728  0.10229900  0.72266919    -0.12500
C2702       C  0.75539406  0.09975642  0.70109919     0.04500
C2703       C  0.76980703  0.12041884  0.68032610    -0.07800
C2704       C  0.76984234  0.14438841  0.68351303    -0.08500
C2705       C  0.75612335  0.14812774  0.70765769    -0.03100
C2706       C  0.73947252  0.12618709  0.72623655     0.03800
N2707       N  0.72336031  0.12789310  0.74955634     0.66300
H2708       H  0.72787995  0.08637058  0.73866901     0.15200
H2709       H  0.78257113  0.16084653  0.66873446     0.14900
N2710       N  0.78676493  0.11846372  0.65815503     0.74000
O2711       O  0.69821592  0.11523196  0.74636171    -0.39500
O2712       O  0.73299745  0.13468938  0.77563520    -0.39400
O2713       O  0.78042269  0.11594038  0.63074898    -0.40100
O2714       O  0.80909224  0.12139813  0.66562511    -0.40200
C2715       C  0.69912355  0.16648253  0.85983824    -0.12500
C2716       C  0.68859127  0.14030356  0.84947052     0.04500
C2717       C  0.68525199  0.13546268  0.81819227    -0.07800
C2718       C  0.69648104  0.15712666  0.79811298    -0.08500
C2719       C  0.71068480  0.18344912  0.80860338    -0.03100
C2720       C  0.70933958  0.18811186  0.83963219     0.03800
N2721       N  0.71792829  0.21441068  0.85069053     0.64500
H2722       H  0.70090554  0.17018811  0.88384963     0.15200
H2723       H  0.69612682  0.15343170  0.77419459     0.14900
N2724       N  0.67125454  0.10886971  0.80639292     0.74000
O2725       O  0.71693680  0.23105527  0.83362175    -0.39500
O2726       O  0.72099470  0.21924164  0.87856521    -0.39400
O2727       O  0.65439560  0.10288023  0.78560688    -0.40100
O2728       O  0.67624011  0.09154034  0.81576867    -0.40200
C2729       C  0.68462459  0.03907604  0.82747519    -0.12500
C2730       C  0.69715989  0.04284734  0.85542547     0.04500
C2731       C  0.71427291  0.03253128  0.85966508    -0.07800
C2732       C  0.72072935  0.02136203  0.83535837    -0.08500
C2733       C  0.71112290  0.02103037  0.80645080    -0.03100
C2734       C  0.69183492  0.02875868  0.80273175     0.03800
N2735       N  0.68096262  0.02796343  0.77357434     0.66300
H2736       H  0.67086824  0.04617128  0.82419566     0.15200
H2737       H  0.74913363  0.52041724  0.84341175     0.14900
N2738       N  0.72714455  0.03542468  0.88788511     0.74000
O2739       O  0.67503776  0.00872965  0.75594978    -0.39500
O2740       O  0.67606042  0.04580277  0.76586134    -0.39400
O2741       O  0.72418137  0.51286378  0.90880075    -0.40100
O2742       O  0.75924563  0.55205478  0.90087509    -0.40200
C2743       C  0.81096738  0.22144090  0.91911127    -0.12500
C2744       C  0.82201956  0.23022542  0.94770345     0.04500
C2745       C  0.80565373  0.21880201  0.97327938    -0.07800
C2746       C  0.77952337  0.19674458  0.96978903    -0.08500
C2747       C  0.76967982  0.18583337  0.94105845    -0.03100
C2748       C  0.78525560  0.19957634  0.91544918     0.03800
N2749       N  0.77678077  0.18995019  0.88553579     0.66300
H2750       H  0.82311283  0.23061335  0.89917523     0.15200
H2751       H  0.76791754  0.18673494  0.98973728     0.14900
N2752       N  0.81611865  0.22744567  0.00282331     0.74000
O2753       O  0.76158876  0.19588718  0.87186230    -0.39500
O2754       O  0.78776322  0.17924670  0.87123648    -0.39400
O2755       O  0.80788241  0.23979445  0.01881281    -0.40100
O2756       O  0.83126596  0.22021501  0.01415118    -0.40200
C2757       C  0.83138379  0.28483644  0.86459043    -0.12500
C2758       C  0.85850191  0.29893052  0.85602143     0.04500
C2759       C  0.86521595  0.30872418  0.82643364    -0.07800
C2760       C  0.84474769  0.30093718  0.80502596    -0.08500
C2761       C  0.81765485  0.28367646  0.81274306    -0.03100
C2762       C  0.81090687  0.27795053  0.84347861     0.03800
N2763       N  0.78350163  0.26504067  0.85343578     0.66300
H2764       H  0.82619409  0.27854707  0.88778823     0.15200
H2765       H  0.85018093  0.30626419  0.78168563     0.14900
N2766       N  0.89259395  0.32334669  0.81679013     0.74000
O2767       O  0.77673159  0.25262671  0.87809683    -0.39500
O2768       O  0.76779948  0.27121579  0.84140870    -0.39400
O2769       O  0.90233811  0.34666055  0.80673869    -0.40100
O2770       O  0.90542245  0.31139969  0.81342895    -0.40200
C2771       C  0.86423336  0.11298313  0.68966089    -0.12500
C2772       C  0.85282985  0.10242472  0.71803322     0.04500
C2773       C  0.86823790  0.11454021  0.74416601    -0.07800
C2774       C  0.89319974  0.13767342  0.74147301    -0.08500
C2775       C  0.90298400  0.14990166  0.71352389    -0.03100
C2776       C  0.88928791  0.13661871  0.68713236     0.03800
N2777       N  0.89952472  0.14773163  0.65797629     0.66300
H2778       H  0.85310111  0.10358296  0.66937124     0.15200
H2779       H  0.90377367  0.14772002  0.76186547     0.14900
N2780       N  0.85778817  0.10569636  0.77387256     0.74000
O2781       O  0.92303237  0.15377919  0.65038361    -0.39500
O2782       O  0.88398648  0.14787947  0.63836352    -0.39400
O2783       O  0.86770496  0.09526598  0.79005518    -0.40100
O2784       O  0.84336753  0.11368751  0.78602944    -0.40200
C2785       C  0.85351405  0.22595909  0.68450955    -0.12500
C2786       C  0.85066379  0.24379280  0.70306501     0.04500
C2787       C  0.87288351  0.26320092  0.71922295    -0.07800
C2788       C  0.89693664  0.26328819  0.71825543    -0.08500
C2789       C  0.89921439  0.24392282  0.70212529    -0.03100
C2790       C  0.87758369  0.22576916  0.68378037     0.03800
N2791       N  0.87854217  0.20499184  0.66767836     0.66300
H2792       H  0.83600300  0.21038530  0.67239147     0.15200
H2793       H  0.91364268  0.27750145  0.73286636     0.14900
N2794       N  0.86994098  0.28008042  0.74016327     0.74000
O2795       O  0.89176736  0.21016255  0.64342402    -0.39500
O2796       O  0.86354402  0.18107045  0.67563518    -0.39400
O2797       O  0.86653498  0.27376271  0.76760322    -0.40100
O2798       O  0.87672761  0.30347358  0.73258139    -0.40200
C2799       C  0.99115050  0.29073706  0.83596032    -0.12500
C2800       C  0.98412770  0.29318623  0.80656298     0.04500
C2801       C  0.97186393  0.30840927  0.80168823    -0.07800
C2802       C  0.96360133  0.31749581  0.82666702    -0.08500
C2803       C  0.96643594  0.31091526  0.85612009    -0.03100
C2804       C  0.98207593  0.29899017  0.86103921     0.03800
N2805       N  0.49055685  0.29915773  0.88981448     0.66300
H2806       H  0.50329553  0.28342360  0.83881979     0.15200
H2807       H  0.95293416  0.32792662  0.82312100     0.14900
N2808       N  0.96612725  0.31320747  0.77171722     0.74000
O2809       O  0.49576248  0.28119780  0.89588838    -0.39500
O2810       O  0.49437551  0.31629559  0.90962656    -0.39400
O2811       O  0.94748240  0.31796022  0.76724106    -0.40100
O2812       O  0.98115790  0.31505446  0.74995844    -0.40200
C2813       C  0.77665901  0.07812571  0.96359976    -0.12500
C2814       C  0.77880037  0.10219052  0.95550290     0.04500
C2815       C  0.80429068  0.12444947  0.94915164    -0.07800
C2816       C  0.82667098  0.12156730  0.94765990    -0.08500
C2817       C  0.82441397  0.09704384  0.95355783    -0.03100
C2818       C  0.79938184  0.07545678  0.96308738     0.03800
N2819       N  0.79637232  0.05084663  0.97244630     0.66300
H2820       H  0.75716007  0.06102405  0.96894683     0.15200
H2821       H  0.84599042  0.13860171  0.94148976     0.14900
N2822       N  0.80768033  0.15017609  0.94447484     0.74000
O2823       O  0.79665957  0.04700410  0.00031105    -0.39500
O2824       O  0.78446864  0.03092312  0.95526189    -0.39400
O2825       O  0.80493646  0.16235381  0.96646504    -0.40100
O2826       O  0.81781592  0.16246272  0.92019457    -0.40200
C2827       C  0.85663512  0.03995733  0.82377370    -0.12500
C2828       C  0.85152362  0.04552524  0.85312042     0.04500
C2829       C  0.82496974  0.03828120  0.86114535    -0.07800
C2830       C  0.80482578  0.02805277  0.83929425    -0.08500
C2831       C  0.81029288  0.02461924  0.80940826    -0.03100
C2832       C  0.83619206  0.02951923  0.80184207     0.03800
N2833       N  0.84280513  0.02678678  0.77143964     0.66300
H2834       H  0.87702035  0.04601920  0.81711278     0.15200
H2835       H  0.78567017  0.50613891  0.83340507     0.14900
N2836       N  0.81861015  0.04306775  0.89093836     0.74000
O2837       O  0.84296454  0.04191350  0.75121041    -0.39500
O2838       O  0.85095634  0.01096881  0.76531284    -0.39400
O2839       O  0.80129803  0.04983412  0.89491639    -0.40100
O2840       O  0.81759900  0.50893421  0.90793159    -0.40200
C2841       C  0.93850325  0.22591958  0.94297534    -0.12500
C2842       C  0.92124339  0.22930959  0.96235741     0.04500
C2843       C  0.90655576  0.20960596  0.98445412    -0.07800
C2844       C  0.90654392  0.18551288  0.98354158    -0.08500
C2845       C  0.92130040  0.18109962  0.96148695    -0.03100
C2846       C  0.93842598  0.20203929  0.94220965     0.03800
N2847       N  0.95348476  0.19824658  0.91924032     0.66300
H2848       H  0.95034872  0.24094396  0.92630447     0.15200
H2849       H  0.89326214  0.16941890  0.99845579     0.14900
N2850       N  0.88977560  0.21262803  0.00605865     0.74000
O2851       O  0.94512593  0.19460212  0.89253507    -0.39500
O2852       O  0.97764410  0.20528395  0.92415943    -0.39400
O2853       O  0.86568858  0.19421398  0.00965558    -0.40100
O2854       O  0.90011650  0.23152687  0.02479619    -0.40200
C2855       C  0.97519721  0.17288426  0.85673833    -0.12500
C2856       C  0.95756770  0.14614787  0.84898076     0.04500
C2857       C  0.95214010  0.13939359  0.81826625    -0.07800
C2858       C  0.96020372  0.15990080  0.79699291    -0.08500
C2859       C  0.97443811  0.18684012  0.80563920    -0.03100
C2860       C  0.98340949  0.19333052  0.83547972     0.03800
N2861       N  0.49848760  0.22033566  0.84623452     0.66300
H2862       H  0.97987458  0.17811373  0.88014794     0.15200
H2863       H  0.95403263  0.15486162  0.77377639     0.14900
N2864       N  0.93701989  0.11205839  0.80871670     0.74000
O2865       O  0.48919668  0.23538307  0.84176603    -0.39500
O2866       O  0.51813918  0.22795435  0.86373184    -0.39400
O2867       O  0.92263945  0.10569141  0.78548610    -0.40100
O2868       O  0.94129926  0.09500916  0.82055576    -0.40200
C2869       C  0.86015179  0.50103464  0.96473280    -0.12500
C2870       C  0.87637650  0.02164386  0.97829958     0.04500
C2871       C  0.84842073  0.00400727  0.98101972    -0.07800
C2872       C  0.83854560  0.97996297  0.99631100    -0.08500
C2873       C  0.85418684  0.47317552  0.00810763    -0.03100
C2874       C  0.84671808  0.47608981  0.97882393     0.03800
N2875       N  0.82546778  0.45405703  0.96319782     0.66300
H2876       H  0.85386942  0.50327266  0.94260849     0.15200
H2877       H  0.81702145  0.96717698  0.99860014     0.14900
N2878       N  0.82959906  0.01057052  0.96954900     0.74000
O2879       O  0.80246746  0.45144742  0.96254968    -0.39500
O2880       O  0.83068277  0.43986107  0.94622716    -0.39400
O2881       O  0.80932532  0.99328783  0.95529551    -0.40100
O2882       O  0.82932888  0.03033162  0.98050144    -0.40200
C2883       C  0.85802372  0.37479411  0.98313600    -0.12500
C2884       C  0.85673049  0.37446316  0.01482920     0.04500
C2885       C  0.86756312  0.36118716  0.03056318    -0.07800
C2886       C  0.87878049  0.34836016  0.01461735    -0.08500
C2887       C  0.87999044  0.34851473  0.98296058    -0.03100
C2888       C  0.86943962  0.36202784  0.96716234     0.03800
N2889       N  0.86922025  0.36220381  0.93497627     0.66300
H2890       H  0.84972956  0.38473024  0.97057287     0.15200
H2891       H  0.88679167  0.33825606  0.02736044     0.14900
N2892       N  0.86641928  0.35947895  0.06270508     0.74000
O2893       O  0.85450190  0.34091571  0.92069035    -0.39500
O2894       O  0.88140134  0.38400622  0.92097050    -0.39400
O2895       O  0.85406686  0.33689719  0.07505987    -0.40100
O2896       O  0.88247456  0.37949058  0.07813288    -0.40200
C2897       C  0.81561290  0.33474392  0.13709797    -0.12500
C2898       C  0.82201147  0.36049013  0.14557081     0.04500
C2899       C  0.82282642  0.36661173  0.17630604    -0.07800
C2900       C  0.81316271  0.34613641  0.19751784    -0.08500
C2901       C  0.80228749  0.31952384  0.18844895    -0.03100
C2902       C  0.80620050  0.31415457  0.15844357     0.03800
N2903       N  0.79813363  0.28764967  0.14883090     0.66300
H2904       H  0.81535791  0.33007117  0.11344500     0.15200
H2905       H  0.81069396  0.35058315  0.22064661     0.14900
N2906       N  0.82914883  0.39251333  0.18595491     0.74000
O2907       O  0.78725359  0.27931161  0.12351755    -0.39500
O2908       O  0.80574952  0.27421182  0.16333260    -0.39400
O2909       O  0.81142203  0.39891549  0.18449664    -0.40100
O2910       O  0.84954117  0.40608385  0.20211596    -0.40200
C2911       C  0.52774885  0.14867347  0.98360048    -0.12500
C2912       C  0.52725498  0.14507374  0.01501335     0.04500
C2913       C  0.50226520  0.12783212  0.02908126    -0.07800
C2914       C  0.97867309  0.11444180  0.00830980    -0.08500
C2915       C  0.97872263  0.12049267  0.97777502    -0.03100
C2916       C  0.50408128  0.13643289  0.96654919     0.03800
N2917       N  0.50563000  0.14229443  0.93516346     0.66300
H2918       H  0.54660040  0.16167578  0.97217253     0.15200
H2919       H  0.96005270  0.10004901  0.01925061     0.14900
N2920       N  0.00071801  0.11925065  0.05613754     0.74000
O2921       O  0.49778605  0.15751859  0.92581309    -0.39500
O2922       O  0.01147439  0.13625579  0.91304754    -0.39400
O2923       O  0.48602988  0.12843266  0.07707063    -0.40100
O2924       O  0.00808315  0.10316470  0.06361872    -0.40200
C2925       C  0.63298977  0.15370091  0.98256937    -0.12500
C2926       C  0.62862688  0.15021672  0.01378674     0.04500
C2927       C  0.63420383  0.13230322  0.02867245    -0.07800
C2928       C  0.64439069  0.11872880  0.01238745    -0.08500
C2929       C  0.64876036  0.12226395  0.98127097    -0.03100
C2930       C  0.64261011  0.13958684  0.96619307     0.03800
N2931       N  0.64701953  0.14378449  0.93449579     0.66300
H2932       H  0.62846087  0.16708518  0.97075140     0.15200
H2933       H  0.64974564  0.10597272  0.02426699     0.14900
N2934       N  0.63119479  0.12891824  0.06058753     0.74000
O2935       O  0.63207841  0.12551127  0.91641889    -0.39500
O2936       O  0.66351790  0.16667611  0.92454774    -0.39400
O2937       O  0.61451435  0.10650162  0.07153211    -0.40100
O2938       O  0.64727902  0.14742835  0.07774624    -0.40200
C2939       C  0.72246777  0.30526423  0.03032180    -0.12500
C2940       C  0.73564767  0.31738973  0.05720615     0.04500
C2941       C  0.72530172  0.30351171  0.08456568    -0.07800
C2942       C  0.70136875  0.27909385  0.08492841    -0.08500
C2943       C  0.68671770  0.26794844  0.05855725    -0.03100
C2944       C  0.69803904  0.28076408  0.03077154     0.03800
N2945       N  0.68441101  0.26998617  0.00303318     0.66300
H2946       H  0.73008798  0.31566492  0.00916395     0.15200
H2947       H  0.69361510  0.26952678  0.10648889     0.14900
N2948       N  0.73853787  0.31429832  0.11251326     0.74000
O2949       O  0.66906125  0.27741678  0.99275514    -0.39500
O2950       O  0.69071212  0.25618819  0.98679962    -0.39400
O2951       O  0.72653348  0.31900347  0.13331835    -0.40100
O2952       O  0.75939768  0.31363290  0.11850374    -0.40200
C2953       C  0.67429034  0.20143736  0.13163408    -0.12500
C2954       C  0.64869215  0.18804695  0.14501923     0.04500
C2955       C  0.64658259  0.18457558  0.17649478    -0.07800
C2956       C  0.66995031  0.19602290  0.19408767    -0.08500
C2957       C  0.69544474  0.21190053  0.18091226    -0.03100
C2958       C  0.69768317  0.21359128  0.14922885     0.03800
N2959       N  0.72347441  0.22872331  0.13485053     0.66300
H2960       H  0.67601019  0.20432835  0.10746919     0.15200
H2961       H  0.66793941  0.19506232  0.21839335     0.14900
N2962       N  0.62088611  0.17138751  0.19111740     0.74000
O2963       O  0.74336681  0.22793404  0.14489524    -0.39500
O2964       O  0.72597745  0.24100590  0.11065222    -0.39400
O2965       O  0.61381846  0.15061464  0.20625590    -0.40100
O2966       O  0.60721985  0.18261947  0.19285967    -0.40200
C2967       C  0.61786629  0.25483090  0.29291867    -0.12500
C2968       C  0.60568501  0.25374243  0.26539485     0.04500
C2969       C  0.61658290  0.24967485  0.23863046    -0.07800
C2970       C  0.63971562  0.24796772  0.23977157    -0.08500
C2971       C  0.65356293  0.25174293  0.26682786    -0.03100
C2972       C  0.64183346  0.25423890  0.29383788     0.03800
N2973       N  0.65475582  0.25783911  0.32212915     0.66300
H2974       H  0.60978390  0.25795224  0.31360437     0.15200
H2975       H  0.64796363  0.24574615  0.21870305     0.14900
N2976       N  0.60552378  0.24891086  0.20970593     0.74000
O2977       O  0.66777071  0.28076281  0.33367645    -0.39500
O2978       O  0.65078933  0.23782726  0.33702118    -0.39400
O2979       O  0.61342357  0.27046833  0.19582581    -0.40100
O2980       O  0.59448757  0.22740049  0.19502112    -0.40200
C2981       C  0.53961606  0.17765645  0.17173679    -0.12500
C2982       C  0.53950408  0.18320325  0.14114856     0.04500
C2983       C  0.52276576  0.19284967  0.13133493    -0.07800
C2984       C  0.51147322  0.20208146  0.15293924    -0.08500
C2985       C  0.51660750  0.20166681  0.18355174    -0.03100
C2986       C  0.52806987  0.18668061  0.19304269     0.03800
N2987       N  0.53056984  0.18293235  0.22437384     0.66300
H2988       H  0.55152909  0.16938312  0.17944484     0.15200
H2989       H  0.50185889  0.21282278  0.14557510     0.14900
N2990       N  0.51803246  0.19474867  0.09990331     0.74000
O2991       O  0.54941486  0.20112520  0.23946646    -0.39500
O2992       O  0.51644767  0.16011064  0.23578316    -0.39400
O2993       O  0.49584660  0.19184516  0.09182153    -0.40100
O2994       O  0.53556939  0.19922676  0.08005799    -0.40200
C2995       C  0.50728814  0.36402728  0.03218521    -0.12500
C2996       C  0.53086348  0.37410682  0.01489454     0.04500
C2997       C  0.52902978  0.37150612  0.98333019    -0.07800
C2998       C  0.50376053  0.35907293  0.96960936    -0.08500
C2999       C  0.98061570  0.34739473  0.98795855    -0.03100
C3000       C  0.98242371  0.34872801  0.01959433     0.03800
N3001       N  0.95898894  0.33484519  0.03817871     0.66300
H3002       H  0.50842838  0.36615009  0.05643994     0.15200
H3003       H  0.50252357  0.35744070  0.94531772     0.14900
N3004       N  0.55264961  0.38187139  0.96498056     0.74000
O3005       O  0.95009141  0.31072449  0.04455747    -0.39500
O3006       O  0.95043213  0.34772691  0.05259625    -0.39400
O3007       O  0.56052522  0.36659523  0.95543606    -0.40100
O3008       O  0.56406479  0.40561867  0.95587029    -0.40200
C3009       C  0.63373601  0.47713425  0.98698462    -0.12500
C3010       C  0.62877670  0.47651836  0.01816742     0.04500
C3011       C  0.63487213  0.50063348  0.03257686    -0.07800
C3012       C  0.65670510  0.02455001  0.01569503    -0.08500
C3013       C  0.65466769  0.02398261  0.98406830    -0.03100
C3014       C  0.64141841  0.99881001  0.96965110     0.03800
N3015       N  0.63918749  0.99659108  0.93759243     0.66300
H3016       H  0.62917456  0.45901660  0.97521227     0.15200
H3017       H  0.66664822  0.04346368  0.02744994     0.14900
N3018       N  0.62934106  0.50139903  0.06386557     0.74000
O3019       O  0.67534373  0.51006504  0.93081678    -0.39500
O3020       O  0.61632542  0.98360834  0.92564213    -0.39400
O3021       O  0.64848405  0.51310431  0.08214336    -0.40100
O3022       O  0.60572829  0.49412770  0.07241052    -0.40200
C3023       C  0.59514925  0.28282231  0.02879859    -0.12500
C3024       C  0.59143641  0.26886763  0.05572182     0.04500
C3025       C  0.58550635  0.27828742  0.08238196    -0.07800
C3026       C  0.58465971  0.30164949  0.08198006    -0.08500
C3027       C  0.59077715  0.31708726  0.05583974    -0.03100
C3028       C  0.59500209  0.30689750  0.02866490     0.03800
N3029       N  0.60029496  0.32121770  0.00110096     0.66300
H3030       H  0.59981675  0.27593418  0.00820847     0.15200
H3031       H  0.58105502  0.30863207  0.10316753     0.14900
N3032       N  0.58198533  0.26541855  0.11075150     0.74000
O3033       O  0.62342489  0.33212403  0.98933943    -0.39500
O3034       O  0.58131204  0.32104565  0.98720288    -0.39400
O3035       O  0.60224353  0.27262593  0.12716098    -0.40100
O3036       O  0.55899808  0.25383591  0.12285060    -0.40200
C3037       C  0.54113528  0.35586707  0.17447325    -0.12500
C3038       C  0.54163313  0.35236705  0.14325501     0.04500
C3039       C  0.52762548  0.32627436  0.13128979    -0.07800
C3040       C  0.51611860  0.30438166  0.15093698    -0.08500
C3041       C  0.51766511  0.30786698  0.18223956    -0.03100
C3042       C  0.52891435  0.33390107  0.19411873     0.03800
N3043       N  0.53079697  0.33840246  0.22605573     0.66300
H3044       H  0.55208452  0.37580742  0.18375041     0.15200
H3045       H  0.00676001  0.28275402  0.14074735     0.14900
N3046       N  0.52738115  0.32171237  0.09945905     0.74000
O3047       O  0.55163231  0.35778071  0.23725995    -0.39500
O3048       O  0.51068291  0.32461214  0.24280985    -0.39400
O3049       O  0.52851351  0.30202005  0.08951735    -0.40100
O3050       O  0.02098302  0.33371679  0.08127417    -0.40200
C3051       C  0.69961934  0.41338550  0.02945408    -0.12500
C3052       C  0.68808823  0.41446948  0.05695834     0.04500
C3053       C  0.70246052  0.41807318  0.08374152    -0.07800
C3054       C  0.72653979  0.41828545  0.08300568    -0.08500
C3055       C  0.73688396  0.41438600  0.05606723    -0.03100
C3056       C  0.72385370  0.41318398  0.02880402     0.03800
N3057       N  0.73436451  0.41091241  0.00048109     0.66300
H3058       H  0.68889150  0.41074074  0.00867520     0.15200
H3059       H  0.73638298  0.42012455  0.10425044     0.14900
N3060       N  0.69240564  0.42068371  0.11225220     0.74000
O3061       O  0.72714306  0.38815574  0.98988929    -0.39500
O3062       O  0.74623707  0.43102674  0.98363072    -0.39400
O3063       O  0.68740830  0.40384288  0.13268787    -0.40100
O3064       O  0.69414999  0.44247801  0.11896008    -0.40200
C3065       C  0.71687985  0.34425780  0.28446971    -0.12500
C3066       C  0.74144695  0.34504410  0.28387718     0.04500
C3067       C  0.76562694  0.36995781  0.28455862    -0.07800
C3068       C  0.76455052  0.39358836  0.28396059    -0.08500
C3069       C  0.73977209  0.39255846  0.28315577    -0.03100
C3070       C  0.71579604  0.36758700  0.28442449     0.03800
N3071       N  0.69013268  0.36566849  0.28540923     0.66300
H3072       H  0.69826057  0.32518711  0.28399068     0.15200
H3073       H  0.78302806  0.41270414  0.28273912     0.14900
N3074       N  0.79116583  0.37154312  0.28370976     0.74000
O3075       O  0.67127979  0.34909257  0.26889839    -0.39500
O3076       O  0.68506945  0.37728086  0.30620037    -0.39400
O3077       O  0.80965288  0.38807452  0.26662653    -0.40100
O3078       O  0.79609754  0.35810771  0.30188724    -0.40200
C3079       C  0.81608243  0.47266000  0.19232115    -0.12500
C3080       C  0.79766445  0.48007148  0.18328844     0.04500
C3081       C  0.79387519  0.48168336  0.15225216    -0.07800
C3082       C  0.80566215  0.47244494  0.13129196    -0.08500
C3083       C  0.82208229  0.46263069  0.14060177    -0.03100
C3084       C  0.82920304  0.46488087  0.17128623     0.03800
N3085       N  0.84851423  0.45808066  0.18149796     0.66300
H3086       H  0.81882160  0.47123765  0.21608932     0.15200
H3087       H  0.80010637  0.47075820  0.10781015     0.14900
N3088       N  0.77610621  0.49021071  0.14196583     0.74000
O3089       O  0.86399456  0.45593900  0.16299466    -0.39500
O3090       O  0.85237700  0.45726445  0.20928594    -0.39400
O3091       O  0.77872218  0.51174299  0.15165584    -0.40100
O3092       O  0.76004413  0.47809619  0.12072178    -0.40200
C3093       C  0.64094692  0.38663705  0.23762520    -0.12500
C3094       C  0.65187996  0.39846609  0.26558335     0.04500
C3095       C  0.63719403  0.38579294  0.29207331    -0.07800
C3096       C  0.61369528  0.36044633  0.28995527    -0.08500
C3097       C  0.60412090  0.34786423  0.26195100    -0.03100
C3098       C  0.61779456  0.36167548  0.23554495     0.03800
N3099       N  0.61037200  0.34950021  0.20646400     0.66300
H3100       H  0.65151371  0.39581115  0.21685349     0.15200
H3101       H  0.60297803  0.35039793  0.31032180     0.14900
N3102       N  0.64572333  0.39822236  0.32103949     0.74000
O3103       O  0.59541036  0.35370992  0.18983140    -0.39500
O3104       O  0.62095764  0.33676367  0.19623209    -0.39400
O3105       O  0.65327633  0.42253324  0.32429096    -0.40100
O3106       O  0.64226649  0.38427406  0.34407897    -0.40200
C3107       C  0.66725873  0.46484723  0.19940249    -0.12500
C3108       C  0.69320769  0.48145233  0.18775866     0.04500
C3109       C  0.69633423  0.48910394  0.15728374    -0.07800
C3110       C  0.67386535  0.47668031  0.13820954    -0.08500
C3111       C  0.64866845  0.45679022  0.14903985    -0.03100
C3112       C  0.64494842  0.45217410  0.18032525     0.03800
N3113       N  0.61943281  0.43274906  0.19278604     0.66300
H3114       H  0.66476118  0.45905079  0.22287100     0.15200
H3115       H  0.67655950  0.48060958  0.11425050     0.14900
N3116       N  0.72518676  0.00439688  0.14184919     0.74000
O3117       O  0.60741240  0.40917366  0.18299065    -0.39500
O3118       O  0.61087375  0.43806909  0.21646453    -0.39400
O3119       O  0.72935624  0.00245160  0.11426838    -0.40100
O3120       O  0.74349757  0.02305233  0.15708191    -0.40200
C3121       C  0.82129757  0.35474914  0.67621858    -0.12500
C3122       C  0.81463967  0.35421668  0.64569866     0.04500
C3123       C  0.79597726  0.32945041  0.63268127    -0.07800
C3124       C  0.78554316  0.30600630  0.64986725    -0.08500
C3125       C  0.79252368  0.30655483  0.68025435    -0.03100
C3126       C  0.81039377  0.33137847  0.69348370     0.03800
N3127       N  0.81899038  0.33305909  0.72387464     0.66300
H3128       H  0.83561465  0.37348863  0.68666019     0.15200
H3129       H  0.77163677  0.28715058  0.63935734     0.14900
N3130       N  0.78813881  0.32748302  0.60185950     0.74000
O3131       O  0.83516173  0.32545373  0.73045130    -0.39500
O3132       O  0.81222421  0.34416308  0.74363904    -0.39400
O3133       O  0.79009635  0.31136599  0.58449913    -0.40100
O3134       O  0.77431925  0.33744185  0.59377996    -0.40200
C3135       C  0.81236071  0.45196657  0.67228742    -0.12500
C3136       C  0.81574141  0.45447449  0.64095206     0.04500
C3137       C  0.80623052  0.46897382  0.62534099    -0.07800
C3138       C  0.79418522  0.48101715  0.64121103    -0.08500
C3139       C  0.79110757  0.47887801  0.67268387    -0.03100
C3140       C  0.79986016  0.46356624  0.68814131     0.03800
N3141       N  0.79632646  0.45955839  0.71993742     0.66300
H3142       H  0.81909399  0.44052165  0.68460333     0.15200
H3143       H  0.80865952  0.00914688  0.63656176     0.14900
N3144       N  0.81000748  0.47296907  0.59356635     0.74000
O3145       O  0.77374685  0.44228511  0.73045140    -0.39500
O3146       O  0.81648294  0.47028710  0.73696388    -0.39400
O3147       O  0.81855371  0.98453796  0.57839645    -0.40100
O3148       O  0.85626495  0.00809317  0.60244430    -0.40200
C3149       C  0.83965981  0.30914161  0.35982194    -0.12500
C3150       C  0.86397378  0.31856618  0.34401974     0.04500
C3151       C  0.86317606  0.31636432  0.31231504    -0.07800
C3152       C  0.83841847  0.30420528  0.29731441    -0.08500
C3153       C  0.81400535  0.29467763  0.31311481    -0.03100
C3154       C  0.81498960  0.29781581  0.34480992     0.03800
N3155       N  0.79120442  0.28980931  0.36225356     0.66300
H3156       H  0.83980079  0.31111284  0.38409592     0.15200
H3157       H  0.83840275  0.30243111  0.27303298     0.14900
N3158       N  0.88726853  0.32584118  0.29498789     0.74000
O3159       O  0.78180388  0.26936918  0.37861546    -0.39500
O3160       O  0.78226020  0.30539716  0.36506471    -0.39400
O3161       O  0.89510365  0.31004474  0.28742971    -0.40100
O3162       O  0.89883993  0.34904759  0.28419078    -0.40200
C3163       C  0.94923372  0.28942146  0.33735127    -0.12500
C3164       C  0.96499749  0.31669991  0.34422606     0.04500
C3165       C  0.99238327  0.33057013  0.33516501    -0.07800
C3166       C  0.00337399  0.31693741  0.32064806    -0.08500
C3167       C  0.98761247  0.28985577  0.31348604    -0.03100
C3168       C  0.96016988  0.27603487  0.32181290     0.03800
N3169       N  0.94331134  0.24830335  0.31533346     0.66300
H3170       H  0.92822328  0.27843559  0.34388332     0.15200
H3171       H  0.52460535  0.32917532  0.31339949     0.14900
N3172       N  0.50910706  0.36018106  0.33712406     0.74000
O3173       O  0.94664827  0.23137377  0.32903009    -0.39500
O3174       O  0.92394410  0.24058638  0.29740288    -0.39400
O3175       O  0.53054101  0.36986569  0.35202286    -0.40100
O3176       O  0.50643320  0.37474109  0.31836938    -0.40200
C3177       C  0.87189261  0.34400444  0.50089182    -0.12500
C3178       C  0.87432698  0.35070028  0.47032281     0.04500
C3179       C  0.86036439  0.36296382  0.45949661    -0.07800
C3180       C  0.84966353  0.37351242  0.48004749    -0.08500
C3181       C  0.85120761  0.37067098  0.51112145    -0.03100
C3182       C  0.85983911  0.35337377  0.52137006     0.03800
N3183       N  0.85787747  0.34620735  0.55245877     0.66300
H3184       H  0.88170904  0.33380936  0.50939709     0.15200
H3185       H  0.84194039  0.38569218  0.47175200     0.14900
N3186       N  0.85708710  0.36514301  0.42785339     0.74000
O3187       O  0.86910248  0.36381054  0.57246949    -0.39500
O3188       O  0.84721619  0.32201188  0.55963003    -0.39400
O3189       O  0.83392105  0.35700597  0.41754901    -0.40100
O3190       O  0.87703446  0.37576529  0.41022289    -0.40200
C3191       C  0.69850793  0.18798662  0.33775267    -0.12500
C3192       C  0.71208596  0.19147091  0.31027042     0.04500
C3193       C  0.71384332  0.16980758  0.29845999    -0.07800
C3194       C  0.70207252  0.14547141  0.31414394    -0.08500
C3195       C  0.68874819  0.14232431  0.34171503    -0.03100
C3196       C  0.68710325  0.16389711  0.35341526     0.03800
N3197       N  0.67189956  0.16087544  0.38006114     0.66300
H3198       H  0.69661696  0.20408054  0.34727118     0.15200
H3199       H  0.70341840  0.12901437  0.30479167     0.14900
N3200       N  0.72685013  0.17190297  0.27026807     0.74000
O3201       O  0.68349286  0.16850368  0.40511754    -0.39500
O3202       O  0.64735269  0.15339724  0.37792110    -0.39400
O3203       O  0.74905308  0.17273380  0.26955404    -0.40100
O3204       O  0.71481130  0.16996972  0.24602806    -0.40200
C3205       C  0.69037281  0.00225445  0.32993589    -0.12500
C3206       C  0.71590213  0.01758673  0.31671529     0.04500
C3207       C  0.72996051  0.04551831  0.32117814    -0.07800
C3208       C  0.71805907  0.05741098  0.33801209    -0.08500
C3209       C  0.69223695  0.04190225  0.35052921    -0.03100
C3210       C  0.67856645  0.01400539  0.34657261     0.03800
N3211       N  0.65252938  0.99719173  0.35949440     0.66300
H3212       H  0.67442789  0.48110392  0.32219431     0.15200
H3213       H  0.72869079  0.07886522  0.34052852     0.14900
N3214       N  0.75632050  0.06204983  0.30898849     0.74000
O3215       O  0.62832833  0.48571793  0.33384442    -0.39500
O3216       O  0.65050003  0.99001254  0.38655188    -0.39400
O3217       O  0.75992726  0.07723103  0.28714371    -0.40100
O3218       O  0.77628528  0.06317770  0.32165428    -0.40200
C3219       C  0.56016696  0.47415520  0.35676861    -0.12500
C3220       C  0.57258970  0.48441085  0.38460829     0.04500
C3221       C  0.56215762  0.46816494  0.41035339    -0.07800
C3222       C  0.53777904  0.44441502  0.40876347    -0.08500
C3223       C  0.52321739  0.43593742  0.38187886    -0.03100
C3224       C  0.53548964  0.45014670  0.35518441     0.03800
N3225       N  0.52267248  0.44154328  0.32667301     0.66300
H3226       H  0.56856884  0.48564900  0.33640380     0.15200
H3227       H  0.52953096  0.43342389  0.42947777     0.14900
N3228       N  0.56630186  0.98253825  0.44593546     0.74000
O3229       O  0.51107459  0.45285010  0.31570674    -0.39500
O3230       O  0.52916861  0.42846243  0.30948926    -0.39400
O3231       O  0.55939862  0.99915027  0.45309726    -0.40100
O3232       O  0.57303733  0.97231749  0.46643585    -0.40200
C3233       C  0.52655526  0.33240926  0.62616066    -0.12500
C3234       C  0.54538181  0.35557713  0.64097894     0.04500
C3235       C  0.55160691  0.35419316  0.67120782    -0.07800
C3236       C  0.53894547  0.32965097  0.68620310    -0.08500
C3237       C  0.51974869  0.30627543  0.67162116    -0.03100
C3238       C  0.51360318  0.30779354  0.64104658     0.03800
N3239       N  0.49418583  0.28473998  0.62475162     0.66300
H3240       H  0.52146238  0.33354778  0.60304201     0.15200
H3241       H  0.05738231  0.31542373  0.67984846     0.14900
N3242       N  0.57047396  0.37773329  0.68702734     0.74000
O3243       O  0.47660580  0.28579746  0.60925308    -0.39500
O3244       O  0.49685090  0.26468894  0.62235634    -0.39400
O3245       O  0.09935962  0.38564377  0.66192699    -0.40100
O3246       O  0.09941665  0.35109239  0.64317272    -0.40200
C3247       C  0.66820995  0.46912681  0.62940683    -0.12500
C3248       C  0.64404759  0.45869533  0.64590435     0.04500
C3249       C  0.64558011  0.46127297  0.67784515    -0.07800
C3250       C  0.67068663  0.47319849  0.69208516    -0.08500
C3251       C  0.69452264  0.48386945  0.67538159    -0.03100
C3252       C  0.69322737  0.48169020  0.64376428     0.03800
N3253       N  0.71869123  0.99121283  0.62273274     0.66300
H3254       H  0.66777470  0.46749195  0.60509882     0.15200
H3255       H  0.67165136  0.47536190  0.71635917     0.14900
N3256       N  0.62222210  0.45303517  0.69631359     0.74000
O3257       O  0.73339605  0.98114242  0.62475576    -0.39500
O3258       O  0.72365457  0.00830876  0.60262621    -0.39400
O3259       O  0.61838779  0.43854767  0.71894686    -0.40100
O3260       O  0.60982152  0.46554870  0.69478056    -0.40200
C3261       C  0.97392820  0.41807099  0.62236048    -0.12500
C3262       C  0.98301911  0.41342075  0.59474149     0.04500
C3263       C  0.96573354  0.40567955  0.56962715    -0.07800
C3264       C  0.94108195  0.40444572  0.57225677    -0.08500
C3265       C  0.93332265  0.41187750  0.59893182    -0.03100
C3266       C  0.94931406  0.41727056  0.62478143     0.03800
N3267       N  0.94136834  0.42269718  0.65334101     0.66300
H3268       H  0.49223943  0.43663968  0.65209126     0.15200
H3269       H  0.92891411  0.39962996  0.55221871     0.14900
N3270       N  0.97328776  0.40073408  0.54061279     0.74000
O3271       O  0.95815879  0.44199396  0.66915811    -0.39500
O3272       O  0.91881802  0.40614080  0.66458439    -0.39400
O3273       O  0.95817556  0.37867277  0.52796339    -0.40100
O3274       O  0.98965973  0.42020937  0.52463321    -0.40200
C3275       C  0.63243742  0.51493125  0.53159537    -0.12500
C3276       C  0.62704221  0.48941289  0.52330333     0.04500
C3277       C  0.63671470  0.48623673  0.49508988    -0.07800
C3278       C  0.64093999  0.00200049  0.46398914    -0.08500
C3279       C  0.65068371  0.02760772  0.47600560    -0.03100
C3280       C  0.65260669  0.03097773  0.50737899     0.03800
N3281       N  0.66334045  0.05686823  0.52038284     0.66300
H3282       H  0.62622190  0.51812501  0.55355015     0.15200
H3283       H  0.63920461  0.99925589  0.43986045     0.14900
N3284       N  0.63482729  0.46152113  0.48682488     0.74000
O3285       O  0.64783969  0.06455650  0.52998142    -0.39500
O3286       O  0.68835525  0.07146064  0.52396313    -0.39400
O3287       O  0.63082917  0.45376915  0.45979016    -0.40100
O3288       O  0.64181411  0.44989516  0.50527460    -0.40200
C3289       C  0.53108468  0.38501889  0.48076518    -0.12500
C3290       C  0.52579154  0.37942945  0.51152732     0.04500
C3291       C  0.49950559  0.35969891  0.52066164    -0.07800
C3292       C  0.97949823  0.34363426  0.50409781    -0.08500
C3293       C  0.98236663  0.34857667  0.47301065    -0.03100
C3294       C  0.00860718  0.36236651  0.46041517     0.03800
N3295       N  0.01276966  0.36597042  0.42841066     0.66300
H3296       H  0.55137823  0.39944361  0.47370509     0.15200
H3297       H  0.95952637  0.33283609  0.51390173     0.14900
N3298       N  0.49341144  0.35004078  0.55113636     0.74000
O3299       O  0.54095134  0.39422097  0.41937609    -0.39500
O3300       O  0.99704472  0.34784700  0.41065179    -0.39400
O3301       O  0.50520259  0.36512099  0.57320494    -0.40100
O3302       O  0.47543544  0.32617414  0.55612337    -0.40200
C3303       C  0.65620122  0.16391330  0.65893050    -0.12500
C3304       C  0.64376304  0.17840943  0.65206511     0.04500
C3305       C  0.65585175  0.20526419  0.66129439    -0.07800
C3306       C  0.68032857  0.21718221  0.67678019    -0.08500
C3307       C  0.69283497  0.20264057  0.68339345    -0.03100
C3308       C  0.68038889  0.17564187  0.67455095     0.03800
N3309       N  0.69176132  0.15965778  0.68190300     0.66300
H3310       H  0.64701557  0.14322127  0.65219065     0.15200
H3311       H  0.68969905  0.23790387  0.68340682     0.14900
N3312       N  0.64315000  0.22037653  0.65593310     0.74000
O3313       O  0.69389345  0.15492923  0.70906737    -0.39500
O3314       O  0.69790458  0.14871668  0.66129211    -0.39400
O3315       O  0.62088312  0.21371752  0.66831678    -0.40100
O3316       O  0.65513761  0.24156300  0.64078314    -0.40200
C3317       C  0.54108134  0.19921751  0.63638464    -0.12500
C3318       C  0.54562466  0.18127132  0.65246430     0.04500
C3319       C  0.53995794  0.17828496  0.68373810    -0.07800
C3320       C  0.52968140  0.19281243  0.69790290    -0.08500
C3321       C  0.52450128  0.21011162  0.68147296    -0.03100
C3322       C  0.53095923  0.21377545  0.65048041     0.03800
N3323       N  0.52825666  0.23289344  0.63318088     0.66300
H3324       H  0.54578403  0.20237177  0.61257775     0.15200
H3325       H  0.02435925  0.18999542  0.72026142     0.14900
N3326       N  0.54388744  0.16021818  0.70139548     0.74000
O3327       O  0.53897877  0.25666085  0.64226635    -0.39500
O3328       O  0.51849839  0.22706004  0.60706160    -0.39400
O3329       O  0.56219012  0.16913010  0.72087373    -0.40100
O3330       O  0.02612757  0.13571333  0.69917913    -0.40200
C3331       C  0.94623324  0.02633383  0.58277212    -0.12500
C3332       C  0.93614865  0.01250810  0.60981983     0.04500
C3333       C  0.94888299  0.02477685  0.63703161    -0.07800
C3334       C  0.97341818  0.04921631  0.63622785    -0.08500
C3335       C  0.98511602  0.06134916  0.60855239    -0.03100
C3336       C  0.97056507  0.05022495  0.58174443     0.03800
N3337       N  0.98137662  0.06144810  0.55283587     0.66300
H3338       H  0.93624977  0.01738063  0.56173100     0.15200
H3339       H  0.51307955  0.03485737  0.62254572     0.14900
N3340       N  0.93521563  0.51018406  0.66185635     0.74000
O3341       O  0.99156069  0.05104249  0.53655702    -0.39500
O3342       O  0.97497571  0.07693744  0.54095701    -0.39400
O3343       O  0.92516829  0.52007031  0.67914895    -0.40100
O3344       O  0.93699346  0.49063724  0.67058100    -0.40200
C3345       C  0.58088043  0.04924419  0.57444926    -0.12500
C3346       C  0.58108215  0.06076403  0.60234741     0.04500
C3347       C  0.58156397  0.04787990  0.62894566    -0.07800
C3348       C  0.57986262  0.02301872  0.62708843    -0.08500
C3349       C  0.57720190  0.01061338  0.59912202    -0.03100
C3350       C  0.57819727  0.02426813  0.57256775     0.03800
N3351       N  0.57446928  0.01231933  0.54342958     0.66300
H3352       H  0.58059915  0.05860329  0.55359804     0.15200
H3353       H  0.52883415  0.48842718  0.62942428     0.14900
N3354       N  0.58286345  0.05926728  0.65790088     0.74000
O3355       O  0.55116437  0.99976333  0.53246775    -0.39500
O3356       O  0.59445109  0.01966280  0.52621241    -0.39400
O3357       O  0.56388099  0.04717404  0.67656534    -0.40100
O3358       O  0.60362937  0.08073101  0.66545436    -0.40200
C3359       C  0.61404436  0.14501973  0.48517509    -0.12500
C3360       C  0.62264424  0.14625107  0.51467396     0.04500
C3361       C  0.64315918  0.14059458  0.52017654    -0.07800
C3362       C  0.65236759  0.13080240  0.49667593    -0.08500
C3363       C  0.64099832  0.12616877  0.46779391    -0.03100
C3364       C  0.62244701  0.13471088  0.46190864     0.03800
N3365       N  0.60969617  0.13083983  0.43333272     0.66300
H3366       H  0.59821117  0.14924776  0.48073636     0.15200
H3367       H  0.66631527  0.12423511  0.50184819     0.14900
N3368       N  0.65235154  0.14154291  0.55010797     0.74000
O3369       O  0.58950994  0.10836765  0.42742913    -0.39500
O3370       O  0.61196408  0.15094616  0.42013147    -0.39400
O3371       O  0.64207715  0.12071452  0.56590513    -0.40100
O3372       O  0.67141305  0.16303794  0.56042139    -0.40200
C3373       C  0.99411745  0.18880383  0.34017954    -0.12500
C3374       C  0.98581250  0.18856468  0.31051120     0.04500
C3375       C  0.96604542  0.16393604  0.29798747    -0.07800
C3376       C  0.95562302  0.14050315  0.31494760    -0.08500
C3377       C  0.96370909  0.14096028  0.34470495    -0.03100
C3378       C  0.98315434  0.16549991  0.35738699     0.03800
N3379       N  0.48861965  0.16421676  0.38601306     0.66300
H3380       H  0.50472705  0.20600209  0.35142764     0.15200
H3381       H  0.94062277  0.12183047  0.30494557     0.14900
N3382       N  0.95608888  0.16223472  0.26823930     0.74000
O3383       O  0.50332626  0.15469327  0.39173926    -0.39500
O3384       O  0.97909949  0.16500473  0.40960036    -0.39400
O3385       O  0.96086726  0.14992611  0.24801123    -0.40100
O3386       O  0.93904961  0.16914103  0.26350715    -0.40200
C3387       C  0.86412430  0.03764020  0.31498412    -0.12500
C3388       C  0.86390035  0.03993630  0.34632722     0.04500
C3389       C  0.83928969  0.03093328  0.36147136    -0.07800
C3390       C  0.81528336  0.01939337  0.34505495    -0.08500
C3391       C  0.81540067  0.01695709  0.31351398    -0.03100
C3392       C  0.84038073  0.02679754  0.29841187     0.03800
N3393       N  0.84216633  0.02555956  0.26635549     0.66300
H3394       H  0.88305095  0.04481393  0.30315158     0.15200
H3395       H  0.79683792  0.52238814  0.35469472     0.14900
N3396       N  0.83946166  0.54468394  0.39015720     0.74000
O3397       O  0.83992566  0.04207585  0.25035659    -0.39500
O3398       O  0.85246777  0.01297707  0.25492529    -0.39400
O3399       O  0.83496006  0.56318625  0.39619968    -0.40100
O3400       O  0.84194412  0.53177396  0.41125212    -0.40200
C3401       C  0.93563602  0.47512196  0.35968354    -0.12500
C3402       C  0.92440663  0.48094376  0.38472813     0.04500
C3403       C  0.91449743  0.46277523  0.40903357    -0.07800
C3404       C  0.91793157  0.44080866  0.40896455    -0.08500
C3405       C  0.93027217  0.43579511  0.38466534    -0.03100
C3406       C  0.93855926  0.45269720  0.35948080     0.03800
N3407       N  0.95271637  0.44908514  0.33518506     0.66300
H3408       H  0.92520058  0.98118345  0.34178722     0.15200
H3409       H  0.91137811  0.42782266  0.42842004     0.14900
N3410       N  0.90153301  0.46668258  0.43440783     0.74000
O3411       O  0.97803068  0.46281039  0.33417131    -0.39500
O3412       O  0.93994331  0.43493958  0.31288557    -0.39400
O3413       O  0.87742258  0.46085703  0.43236622    -0.40100
O3414       O  0.91284638  0.47253262  0.45972916    -0.40200
C3415       C  0.53666215  0.14835206  0.49081522    -0.12500
C3416       C  0.52502341  0.14420298  0.51947010     0.04500
C3417       C  0.49728320  0.13481520  0.52210765    -0.07800
C3418       C  0.98134241  0.12959778  0.50107350    -0.08500
C3419       C  0.99006682  0.12720747  0.47222415    -0.03100
C3420       C  0.52057223  0.13868593  0.46519971     0.03800
N3421       N  0.02867735  0.13874102  0.43755582     0.66300
H3422       H  0.55802334  0.15589923  0.48855400     0.15200
H3423       H  0.96006145  0.12066473  0.50580792     0.14900
N3424       N  0.48482906  0.13204161  0.55092126     0.74000
O3425       O  0.54930695  0.16309688  0.42608764    -0.39500
O3426       O  0.02813592  0.11770874  0.42963037    -0.39400
O3427       O  0.47185248  0.14365708  0.55599581    -0.40100
O3428       O  0.98838986  0.12349741  0.57429678    -0.40200
C3429       C  0.86005378  0.49817732  0.46828011    -0.12500
C3430       C  0.88297203  0.02360991  0.47651333     0.04500
C3431       C  0.88388474  0.02803202  0.50766653    -0.07800
C3432       C  0.87318722  0.00636603  0.52738235    -0.08500
C3433       C  0.85801277  0.47995371  0.51812386    -0.03100
C3434       C  0.84846333  0.47629769  0.48831454     0.03800
N3435       N  0.82873465  0.45051724  0.47740491     0.66300
H3436       H  0.85513026  0.49473107  0.44460136     0.15200
H3437       H  0.87687640  0.01020950  0.55120220     0.14900
N3438       N  0.89776608  0.05451563  0.51951126     0.74000
O3439       O  0.83263464  0.43118995  0.47881420    -0.39500
O3440       O  0.80793021  0.44741220  0.46468223    -0.39400
O3441       O  0.88804299  0.06935029  0.51622156    -0.40100
O3442       O  0.91821084  0.06219079  0.53571456    -0.40200
C3443       C  0.51782860  0.04633685  0.35984732    -0.12500
C3444       C  0.51922947  0.07097387  0.36011205     0.04500
C3445       C  0.54453625  0.09469645  0.35812612    -0.07800
C3446       C  0.56798453  0.09304071  0.35974489    -0.08500
C3447       C  0.56619878  0.06827664  0.36278438    -0.03100
C3448       C  0.54096933  0.04473856  0.36101022     0.03800
N3449       N  0.53860456  0.01908929  0.36140745     0.66300
H3450       H  0.99794452  0.02898054  0.37461864     0.15200
H3451       H  0.58752560  0.11107282  0.36053211     0.14900
N3452       N  0.54672103  0.12029285  0.35625974     0.74000
O3453       O  0.52056490  0.00048174  0.37708051    -0.39500
O3454       O  0.55202821  0.01400333  0.34288338    -0.39400
O3455       O  0.56713472  0.14076690  0.36650334    -0.40100
O3456       O  0.52996912  0.12306908  0.34115745    -0.40200
O3457       O  0.89618485  0.55387209  0.43610168    -0.82000
C3458       C  0.99061816  0.56641736  0.37951105     0.97400
O3459       O  0.97870704  0.55389973  0.40306967    -0.71100
O3460       O  0.97459011  0.58476338  0.44175238    -0.74700
Al3461     Al  0.95001176  0.55117259  0.42675043     1.49000
C3462       C  0.96970211  0.60203282  0.45166885     0.92600
O3463       O  0.94665440  0.61350870  0.38877462    -0.80900
O3464       O  0.90427103  0.54280144  0.35415227    -0.74500
Al3465     Al  0.92272688  0.58287826  0.41189878     1.90100
O3466       O  0.94755665  0.59339701  0.34733668    -0.73600
O3467       O  0.93609841  0.52386984  0.36560043    -0.73400
O3468       O  0.97976972  0.57536674  0.36249322    -0.79100
O3469       O  0.92652958  0.51614733  0.41360536    -0.77300
O3470       O  0.93810325  0.56466135  0.39961865    -1.13400
O3471       O  0.92428991  0.54489833  0.45760581    -0.72600
C3472       C  0.90119961  0.54186495  0.45605285     0.98100
C3473       C  0.95224478  0.61433814  0.36113412     0.94500
Al3474     Al  0.94148194  0.55937806  0.36061672     1.55600
O3475       O  0.94753500  0.60060726  0.44566199    -0.77200
C3476       C  0.92817790  0.50800189  0.38780762     0.98700
C3477       C  0.88863858  0.55099575  0.36142783     0.93600
O3478       O  0.89550865  0.56921646  0.38097290    -0.82500
O3479       O  0.61120297  0.65698362  0.56707277    -0.82000
C3480       C  0.50993861  0.58102294  0.61790328     0.97400
O3481       O  0.52339310  0.57785477  0.59774390    -0.71100
O3482       O  0.53300885  0.61351403  0.55776447    -0.74700
Al3483     Al  0.55439201  0.60204209  0.57602464     1.49000
C3484       C  0.54093665  0.63628675  0.54718467     0.92600
O3485       O  0.56286612  0.67162784  0.61098418    -0.80900
O3486       O  0.59721460  0.63865910  0.65136050    -0.74500
Al3487     Al  0.58549997  0.66194763  0.59015806     1.90100
O3488       O  0.55659093  0.64981943  0.65291681    -0.73600
O3489       O  0.56202953  0.58828942  0.63934479    -0.73400
O3490       O  0.52145464  0.60020236  0.63627446    -0.79100
O3491       O  0.57461920  0.58802930  0.59254827    -0.77300
O3492       O  0.56681429  0.62825415  0.60272153    -1.13400
O3493       O  0.58172753  0.61921921  0.54670590    -0.72600
C3494       C  0.60485167  0.63940509  0.54700102     0.98100
C3495       C  0.55493782  0.66717137  0.63800068     0.94500
Al3496     Al  0.56006244  0.62010643  0.64177155     1.55600
O3497       O  0.56318292  0.65625814  0.55510150    -0.77200
C3498       C  0.57057163  0.57913829  0.61905660     0.98700
C3499       C  0.61496160  0.66201366  0.64382427     0.93600
O3500       O  0.61086831  0.67389600  0.62265030    -0.82500
O3501       O  0.55988675  0.88798254  0.54986635    -0.82000
C3502       C  0.57102392  0.98280969  0.59748906     0.97400
O3503       O  0.55593219  0.96836166  0.57674994    -0.71100
O3504       O  0.58949138  0.96530060  0.54069915    -0.74700
Al3505     Al  0.55567541  0.94015776  0.55527183     1.49000
C3506       C  0.60796130  0.96124619  0.53250392     0.92600
O3507       O  0.61927473  0.93944263  0.59664092    -0.80900
O3508       O  0.54868718  0.89943555  0.63200775    -0.74500
Al3509     Al  0.58878237  0.91521939  0.57362203     1.90100
O3510       O  0.59874358  0.94338408  0.63614607    -0.73600
O3511       O  0.52817739  0.92841977  0.61593934    -0.73400
O3512       O  0.57990771  0.97324160  0.61640382    -0.79100
O3513       O  0.52061813  0.91559604  0.56873351    -0.77300
O3514       O  0.56989012  0.93031894  0.58387893    -1.13400
O3515       O  0.55174456  0.91505826  0.52531820    -0.72600
C3516       C  0.54784442  0.89210538  0.52907274     0.98100
C3517       C  0.61981074  0.94652413  0.62364854     0.94500
Al3518     Al  0.56440105  0.93564699  0.62207630     1.55600
O3519       O  0.60718563  0.93965833  0.53938675    -0.77200
C3520       C  0.51200178  0.91767613  0.59418799     0.98700
C3521       C  0.55718651  0.88384093  0.62647643     0.93600
O3522       O  0.57466135  0.88925621  0.60595324    -0.82500
O3523       O  0.66412022  0.60607464  0.44411538    -0.82000
C3524       C  0.59289604  0.51305338  0.38748741     0.97400
O3525       O  0.59988367  0.52283970  0.41346963    -0.71100
O3526       O  0.62958507  0.55367001  0.45706232    -0.74700
Al3527     Al  0.61153650  0.55811648  0.42393258     1.49000
C3528       C  0.64852478  0.54899868  0.45715249     0.92600
O3529       O  0.68654270  0.57344841  0.38180587    -0.80900
O3530       O  0.65910984  0.59797746  0.34600660    -0.74500
Al3531     Al  0.67201414  0.58772131  0.41127117     1.90100
O3532       O  0.65183219  0.54799229  0.35361326    -0.73600
O3533       O  0.60835151  0.57898660  0.35793324    -0.73400
O3534       O  0.60110941  0.52796522  0.36444484    -0.79100
O3535       O  0.58566921  0.55869388  0.39830810    -0.77300
O3536       O  0.63837001  0.57013249  0.39766463    -1.13400
O3537       O  0.62161245  0.59278087  0.43605849    -0.72600
C3538       C  0.64356589  0.60835288  0.44884945     0.98100
C3539       C  0.67518817  0.55528050  0.36218106     0.94500
Al3540     Al  0.63094844  0.56385933  0.35867521     1.55600
O3541       O  0.66624202  0.55855305  0.43674999    -0.77200
C3542       C  0.58752573  0.57027864  0.37391148     0.98700
C3543       C  0.67609939  0.61870677  0.35980030     0.93600
O3544       O  0.68156865  0.61801763  0.38710298    -0.82500
O3545       O  0.94914572  0.83254425  0.43310880    -0.82000
C3546       C  0.93822402  0.91662204  0.38791342     0.97400
O3547       O  0.95228874  0.91692051  0.40951238    -0.71100
O3548       O  0.91880725  0.87927205  0.44454941    -0.74700
Al3549     Al  0.95298759  0.88906723  0.43021130     1.49000
C3550       C  0.90040809  0.85632257  0.45203892     0.92600
O3551       O  0.89026609  0.82541362  0.38727351    -0.80900
O3552       O  0.96180232  0.85643675  0.35317900    -0.74500
Al3553     Al  0.92031203  0.83094921  0.40994608     1.90100
O3554       O  0.91148512  0.84967251  0.34784466    -0.73600
O3555       O  0.98192601  0.90618757  0.36997100    -0.73400
O3556       O  0.93017596  0.89850632  0.36827184    -0.79100
O3557       O  0.98826976  0.90085179  0.41733846    -0.77300
O3558       O  0.93946961  0.86535474  0.40077391    -1.13400
O3559       O  0.95719871  0.86744703  0.45915936    -0.72600
C3560       C  0.96166226  0.84889204  0.45393652     0.98100
C3561       C  0.89000971  0.83224853  0.36045040     0.94500
Al3562     Al  0.94578406  0.87662323  0.36278705     1.55600
O3563       O  0.90181976  0.83589888  0.44486302    -0.77200
C3564       C  0.99747371  0.91204915  0.39228967     0.98700
C3565       C  0.95310131  0.83219068  0.35816351     0.93600
O3566       O  0.93418920  0.81946996  0.37698221    -0.82500
O3567       O  0.84046026  0.93749978  0.54225715    -0.82000
C3568       C  0.91463998  0.92128492  0.60062720     0.97400
O3569       O  0.90579730  0.92060097  0.57462954    -0.71100
O3570       O  0.87452182  0.91764418  0.53099352    -0.74700
Al3571     Al  0.89348611  0.94294594  0.56191392     1.49000
C3572       C  0.85525987  0.89405138  0.53304880     0.92600
O3573       O  0.81972226  0.88715750  0.60852164    -0.80900
O3574       O  0.84676110  0.93870221  0.64098195    -0.74500
Al3575     Al  0.83348079  0.91358681  0.57678107     1.90100
O3576       O  0.85522715  0.89688172  0.63548859    -0.73600
O3577       O  0.89699371  0.97175027  0.62539028    -0.73400
O3578       O  0.90667877  0.92936386  0.62282729    -0.79100
O3579       O  0.91914525  0.97164931  0.58541945    -0.77300
O3580       O  0.86734156  0.92996261  0.58910066    -1.13400
O3581       O  0.88352577  0.96647220  0.54747978    -0.72600
C3582       C  0.86107026  0.96016457  0.53666239     0.98100
C3583       C  0.83090929  0.88132075  0.62903878     0.94500
Al3584     Al  0.87567105  0.93375860  0.62803941     1.55600
O3585       O  0.83756589  0.88785069  0.55324813    -0.77200
C3586       C  0.91624856  0.98388717  0.60716783     0.98700
C3587       C  0.83078166  0.94325547  0.62666228     0.93600
O3588       O  0.82596038  0.93705390  0.59918920    -0.82500
O3589       O  0.77460943  0.49748346  0.21282370    -0.82000
C3590       C  0.68272379  0.92161561  0.26386292     0.97400
O3591       O  0.69314922  0.93169439  0.23877871    -0.71100
O3592       O  0.72485312  0.96587429  0.19848613    -0.74700
Al3593     Al  0.72913831  0.94472291  0.22841106     1.49000
C3594       C  0.71846132  0.98321845  0.20350634     0.92600
O3595       O  0.74378056  0.51515084  0.28111999    -0.80900
O3596       O  0.76801482  0.98652389  0.31032982    -0.74500
Al3597     Al  0.75673742  0.50250364  0.24827692     1.90100
O3598       O  0.71709862  0.97895058  0.30319724    -0.73600
O3599       O  0.74895632  0.93662290  0.29319607    -0.73400
O3600       O  0.69711171  0.92872215  0.28746127    -0.79100
O3601       O  0.72990981  0.91725255  0.25087384    -0.77300
O3602       O  0.74067198  0.96890459  0.25745126    -1.13400
O3603       O  0.76442024  0.95595724  0.21603213    -0.72600
C3604       C  0.78053832  0.97887314  0.20601124     0.98100
C3605       C  0.72447428  0.50299631  0.29953163     0.94500
Al3606     Al  0.73341309  0.95867080  0.29554091     1.55600
O3607       O  0.72935443  0.99964582  0.22471033    -0.77200
C3608       C  0.74103130  0.91740248  0.27515394     0.98700
C3609       C  0.78729541  0.50274977  0.29778544     0.93600
O3610       O  0.78700051  0.50858695  0.27053645    -0.82500
O3611       O  0.56079285  0.88627184  0.10489940    -0.82000
C3612       C  0.66161319  0.90507627  0.06301647     0.97400
O3613       O  0.64659102  0.88917220  0.08300523    -0.71100
O3614       O  0.63806381  0.91837091  0.11981050    -0.74700
Al3615     Al  0.61557533  0.88532721  0.10240661     1.49000
C3616       C  0.63194045  0.93523767  0.12798952     0.92600
O3617       O  0.61350591  0.94830648  0.06196761    -0.80900
O3618       O  0.57765614  0.87919432  0.02362562    -0.74500
Al3619     Al  0.58875192  0.91654070  0.08311448     1.90100
O3620       O  0.62040717  0.93032935  0.02213145    -0.73600
O3621       O  0.60862331  0.86084102  0.04033787    -0.73400
O3622       O  0.65193437  0.91327005  0.04331521    -0.79100
O3623       O  0.59370925  0.85095420  0.08669235    -0.77300
O3624       O  0.60612563  0.89965438  0.07348672    -1.13400
O3625       O  0.58747808  0.87775675  0.13016987    -0.72600
C3626       C  0.56434906  0.87356058  0.12535971     0.98100
C3627       C  0.62187502  0.95030816  0.03521457     0.94500
Al3628     Al  0.61397613  0.89627104  0.03541992     1.55600
O3629       O  0.61043239  0.93385680  0.11904722    -0.77200
C3630       C  0.59764961  0.84383537  0.06121560     0.98700
C3631       C  0.56057027  0.88599565  0.02897664     0.93600
O3632       O  0.56471127  0.90305230  0.04922343    -0.82500
O3633       O  0.50168201  0.77489354  0.22195885    -0.82000
C3634       C  0.58532291  0.76179756  0.26560139     0.97400
O3635       O  0.58564974  0.77576863  0.24409307    -0.71100
O3636       O  0.54663295  0.74222635  0.21056100    -0.74700
Al3637     Al  0.55755963  0.77657575  0.22395160     1.49000
C3638       C  0.52312993  0.72451324  0.20362681     0.92600
O3639       O  0.98992552  0.71443845  0.26732391    -0.80900
O3640       O  0.52626308  0.78728764  0.30165108    -0.74500
Al3641     Al  0.99639867  0.74478226  0.24488614     1.90100
O3642       O  0.51802361  0.73670567  0.30763037    -0.73600
O3643       O  0.57638968  0.80622164  0.28334281    -0.73400
O3644       O  0.56737891  0.75434200  0.28577030    -0.79100
O3645       O  0.57050522  0.81204288  0.23586536    -0.77300
O3646       O  0.53402121  0.76415302  0.25401988    -1.13400
O3647       O  0.53577269  0.78056822  0.19512838    -0.72600
C3648       C  0.51777504  0.78601881  0.20027997     0.98100
C3649       C  0.99758923  0.71372284  0.29361153     0.94500
Al3650     Al  0.54592027  0.77057737  0.29168082     1.55600
O3651       O  0.50310956  0.72686583  0.21098979    -0.77200
C3652       C  0.58253436  0.82127955  0.26045442     0.98700
C3653       C  0.00038206  0.77781306  0.29665625     0.93600
O3654       O  0.98664029  0.75919508  0.27832511    -0.82500
O3655       O  0.61695851  0.66754686  0.10493048    -0.82000
C3656       C  0.59977776  0.74719674  0.05901285     0.97400
O3657       O  0.61409858  0.74823874  0.08050082    -0.71100
O3658       O  0.58007304  0.70887009  0.11380909    -0.74700
Al3659     Al  0.61534613  0.72095451  0.10118367     1.49000
C3660       C  0.56338059  0.68539904  0.12182785     0.92600
O3661       O  0.55637440  0.65457504  0.05713090    -0.80900
O3662       O  0.62724821  0.68952311  0.02319432    -0.74500
Al3663     Al  0.58699100  0.66288526  0.08075880     1.90100
O3664       O  0.57600584  0.68078564  0.01850025    -0.73600
O3665       O  0.64564594  0.73900560  0.04169287    -0.73400
O3666       O  0.59291302  0.72940533  0.03912415    -0.79100
O3667       O  0.65165741  0.73491494  0.08976768    -0.77300
O3668       O  0.60391527  0.69726334  0.07148860    -1.13400
O3669       O  0.61951155  0.70029588  0.13104611    -0.72600
C3670       C  0.62662717  0.68358922  0.12677078     0.98100
C3671       C  0.55531069  0.66161028  0.03057631     0.94500
Al3672     Al  0.60996399  0.70866400  0.03363518     1.55600
O3673       O  0.56696507  0.66620739  0.11496106    -0.77200
C3674       C  0.66097644  0.74571201  0.06445276     0.98700
C3675       C  0.61971713  0.66548372  0.02836377     0.93600
O3676       O  0.60235679  0.65272132  0.04855824    -0.82500
O3677       O  0.84320511  0.94768758  0.10424101    -0.82000
C3678       C  0.75925971  0.84730056  0.06365489     0.97400
O3679       O  0.75925462  0.86167343  0.08478169    -0.71100
O3680       O  0.79915682  0.86977973  0.11811534    -0.74700
Al3681     Al  0.78764392  0.89210741  0.10369157     1.49000
C3682       C  0.82272048  0.87714229  0.12615400     0.92600
O3683       O  0.85304468  0.89683107  0.06025092    -0.80900
O3684       O  0.81894569  0.93096439  0.02397858    -0.74500
Al3685     Al  0.84609578  0.92071131  0.08198319     1.90100
O3686       O  0.82649701  0.88841595  0.02163643    -0.73600
O3687       O  0.76917124  0.90092968  0.04327845    -0.73400
O3688       O  0.77718065  0.85735695  0.04344450    -0.79100
O3689       O  0.77438003  0.91375935  0.09063422    -0.77300
O3690       O  0.81113216  0.90264876  0.07358332    -1.13400
O3691       O  0.80936649  0.91936185  0.13168127    -0.72600
C3692       C  0.82752937  0.94286386  0.12628204     0.98100
C3693       C  0.84557133  0.88753392  0.03413478     0.94500
Al3694     Al  0.79905871  0.89511023  0.03605324     1.55600
O3695       O  0.84252215  0.89942674  0.11773350    -0.77200
C3696       C  0.76328290  0.91095243  0.06544409     0.98700
C3697       C  0.84329876  0.94816434  0.02829549     0.93600
O3698       O  0.85657019  0.94460342  0.04822938    -0.82500
O3699       O  0.72682607  0.72557385  0.22305308    -0.82000
C3700       C  0.74250545  0.82098199  0.27605018     0.97400
O3701       O  0.73096851  0.80987325  0.25189541    -0.71100
O3702       O  0.76388027  0.80446797  0.21634273    -0.74700
Al3703     Al  0.72855878  0.78111237  0.22905600     1.49000
C3704       C  0.78012433  0.79762859  0.20709217     0.92600
O3705       O  0.78764630  0.77443497  0.26970366    -0.80900
O3706       O  0.71539293  0.73451416  0.30299598    -0.74500
Al3707     Al  0.75690430  0.75121647  0.24674269     1.90100
O3708       O  0.76701631  0.77730610  0.31005610    -0.73600
O3709       O  0.69780808  0.76635783  0.28894782    -0.73400
O3710       O  0.74991526  0.80941151  0.29396629    -0.79100
O3711       O  0.69241353  0.75882356  0.24034235    -0.77300
O3712       O  0.73969182  0.76802129  0.25750892    -1.13400
O3713       O  0.72288585  0.75550246  0.19833346    -0.72600
C3714       C  0.71637803  0.73158367  0.20203715     0.98100
C3715       C  0.78819960  0.78107950  0.29692037     0.94500
Al3716     Al  0.73313482  0.77147603  0.29591632     1.55600
O3717       O  0.77598646  0.77452246  0.21265567    -0.77200
C3718       C  0.68289020  0.75912007  0.26595044     0.98700
C3719       C  0.72379640  0.71892721  0.29722383     0.93600
O3720       O  0.74265734  0.72526518  0.27851655    -0.82500
O3721       O  0.88939338  0.55915946  0.88809143    -0.82000
C3722       C  0.90165899  0.64842085  0.95111281     0.97400
O3723       O  0.88331433  0.63403208  0.93253167    -0.71100
O3724       O  0.89769267  0.62146705  0.88247555    -0.74700
Al3725     Al  0.87290645  0.60105298  0.91247915     1.49000
C3726       C  0.91888451  0.62383085  0.87136123     0.92600
O3727       O  0.94955787  0.60940951  0.93551248    -0.80900
O3728       O  0.88420500  0.56496935  0.97963082    -0.74500
Al3729     Al  0.91683240  0.58524771  0.91431507     1.90100
O3730       O  0.93264343  0.60823166  0.97939459    -0.73600
O3731       O  0.86347267  0.59656293  0.98034078    -0.73400
O3732       O  0.91228189  0.63877062  0.96772265    -0.79100
O3733       O  0.84339042  0.57993029  0.93827160    -0.77300
O3734       O  0.89616397  0.59598916  0.93272958    -1.13400
O3735       O  0.85884859  0.57039577  0.88902350    -0.72600
C3736       C  0.86713449  0.55568851  0.87950766     0.98100
C3737       C  0.95259197  0.61393281  0.96333712     0.94500
Al3738     Al  0.89804259  0.60145895  0.97280007     1.55600
O3739       O  0.92964889  0.61173452  0.88270646    -0.77200
C3740       C  0.84234207  0.58499847  0.96539661     0.98700
C3741       C  0.89094846  0.54980202  0.96670105     0.93600
O3742       O  0.90588158  0.55676745  0.94324080    -0.82500
O3743       O  0.49008898  0.77194517  0.76492147    -0.82000
C3744       C  0.91704227  0.68296807  0.69010833     0.97400
O3745       O  0.91018616  0.69417702  0.70979256    -0.71100
O3746       O  0.93510736  0.69804429  0.75903785    -0.74700
Al3747     Al  0.93149741  0.72296394  0.73713296     1.49000
C3748       C  0.95446730  0.70006010  0.77380988     0.92600
O3749       O  0.50170019  0.72298626  0.71892421    -0.80900
O3750       O  0.98373687  0.77031211  0.67471808    -0.74500
Al3751     Al  0.49343164  0.74650905  0.74035004     1.90100
O3752       O  0.99110410  0.72823981  0.67145327    -0.73600
O3753       O  0.93114252  0.73815993  0.67182426    -0.73400
O3754       O  0.93927603  0.69565331  0.67650959    -0.79100
O3755       O  0.92434683  0.74710957  0.71754394    -0.77300
O3756       O  0.96215904  0.73428483  0.71744455    -1.13400
O3757       O  0.94565543  0.74832787  0.76892497    -0.72600
C3758       C  0.96836515  0.76793390  0.77514550     0.98100
C3759       C  0.50117050  0.71938414  0.69086252     0.94500
Al3760     Al  0.96149163  0.73328678  0.67713856     1.55600
O3761       O  0.47959952  0.71971492  0.77262202    -0.77200
C3762       C  0.92044996  0.74687835  0.68980045     0.98700
C3763       C  0.50452719  0.78337184  0.68924897     0.93600
O3764       O  0.51243630  0.77544837  0.71139779    -0.82500
O3765       O  0.94897753  0.82715776  0.89357127    -0.82000
C3766       C  0.85162989  0.75367475  0.95287877     0.97400
O3767       O  0.86221125  0.74986770  0.93001355    -0.71100
O3768       O  0.86996872  0.78446498  0.88939947    -0.74700
Al3769     Al  0.89205596  0.77289423  0.90574976     1.49000
C3770       C  0.87756813  0.80692073  0.87806177     0.92600
O3771       O  0.90282643  0.84279815  0.94055897    -0.80900
O3772       O  0.94077841  0.81103873  0.97684020    -0.74500
Al3773     Al  0.92467223  0.83299639  0.91791065     1.90100
O3774       O  0.90084784  0.82265382  0.98266520    -0.73600
O3775       O  0.90491669  0.76029869  0.96793201    -0.73400
O3776       O  0.86512448  0.77321640  0.97001643    -0.79100
O3777       O  0.91271156  0.75888434  0.91994871    -0.77300
O3778       O  0.90676458  0.79963525  0.93161355    -1.13400
O3779       O  0.91815669  0.78907499  0.87482315    -0.72600
C3780       C  0.94179355  0.80858533  0.87464889     0.98100
C3781       C  0.89680255  0.83877302  0.96817318     0.94500
Al3782     Al  0.90337147  0.79256815  0.97103828     1.55600
O3783       O  0.90056703  0.82668986  0.88422449    -0.77200
C3784       C  0.91169045  0.75067416  0.94636412     0.98700
C3785       C  0.95745963  0.83454481  0.96900122     0.93600
O3786       O  0.95198014  0.84595483  0.94850676    -0.82500
O3787       O  0.68683166  0.61451276  0.89178465    -0.82000
C3788       C  0.75294176  0.59388406  0.96681719     0.97400
O3789       O  0.75932041  0.60709263  0.94279735    -0.71100
O3790       O  0.72771587  0.57693823  0.89982913    -0.74700
Al3791     Al  0.73855048  0.61161765  0.91309591     1.49000
C3792       C  0.70718382  0.56306229  0.88402356     0.92600
O3793       O  0.66518372  0.55271870  0.94104298    -0.80900
O3794       O  0.69371587  0.62418853  0.97445544    -0.74500
Al3795     Al  0.67731144  0.58411287  0.91738585     1.90100
O3796       O  0.68045038  0.57228403  0.98468016    -0.73600
O3797       O  0.74456384  0.64029187  0.97298056    -0.73400
O3798       O  0.73123773  0.58742048  0.98014203    -0.79100
O3799       O  0.75161088  0.64710947  0.92439794    -0.77300
O3800       O  0.70920478  0.60034027  0.93520820    -1.13400
O3801       O  0.72533946  0.61922101  0.87780671    -0.72600
C3802       C  0.70692678  0.62438600  0.87412216     0.98100
C3803       C  0.66649463  0.55135935  0.96934249     0.94500
Al3804     Al  0.71210713  0.60557106  0.97480938     1.55600
O3805       O  0.68719595  0.56649870  0.88605672    -0.77200
C3806       C  0.75571689  0.65592997  0.95094018     0.98700
C3807       C  0.67078491  0.61645148  0.96410637     0.93600
O3808       O  0.66057333  0.59793931  0.94466494    -0.82500
O3809       O  0.78199202  0.00532470  0.76577971    -0.82000
C3810       C  0.77106227  0.58487584  0.71602811     0.97400
O3811       O  0.77285703  0.57732361  0.74195275    -0.71100
O3812       O  0.76746994  0.54495346  0.78510710    -0.74700
Al3813     Al  0.79205707  0.56069912  0.75201748     1.49000
C3814       C  0.74287249  0.52725188  0.78568266     0.92600
O3815       O  0.72070735  0.98883524  0.71709127    -0.80900
O3816       O  0.77714890  0.51089731  0.67445491    -0.74500
Al3817     Al  0.75162076  0.99843515  0.74107726     1.90100
O3818       O  0.73686065  0.52243416  0.68303922    -0.73600
O3819       O  0.81271758  0.56143518  0.68355994    -0.73400
O3820       O  0.77274743  0.57324545  0.69261419    -0.79100
O3821       O  0.82059386  0.58327116  0.72586373    -0.77300
O3822       O  0.77387208  0.53442063  0.72609942    -1.13400
O3823       O  0.81343434  0.54652029  0.76426345    -0.72600
C3824       C  0.80365486  0.52474584  0.77808249     0.98100
C3825       C  0.72045576  0.99397546  0.68943052     0.94500
Al3826     Al  0.77457944  0.54122236  0.68682323     1.55600
O3827       O  0.73258187  0.00338515  0.77515617    -0.77200
C3828       C  0.82786682  0.58097526  0.69988980     0.98700
C3829       C  0.78461800  0.99736672  0.69108486     0.93600
O3830       O  0.76630308  0.98581824  0.71063231    -0.82500
O3831       O  0.73557869  0.71886015  0.77206058    -0.82000
C3832       C  0.82872314  0.75092698  0.70049970     0.97400
O3833       O  0.82401648  0.74159363  0.72670748    -0.71100
O3834       O  0.81502573  0.76732812  0.76773908    -0.74700
Al3835     Al  0.79597546  0.73170449  0.75501878     1.49000
C3836       C  0.80468246  0.77714456  0.78431847     0.92600
O3837       O  0.77439964  0.78176899  0.72391551    -0.80900
O3838       O  0.73534042  0.70761101  0.69360129    -0.74500
Al3839     Al  0.75564965  0.75023209  0.74776464     1.90100
O3840       O  0.77142193  0.76111049  0.68105043    -0.73600
O3841       O  0.77496860  0.69817239  0.69596970    -0.73400
O3842       O  0.81077763  0.75145698  0.68533999    -0.79100
O3843       O  0.77998233  0.69588324  0.74449062    -0.77300
O3844       O  0.77499692  0.73727699  0.73146395    -1.13400
O3845       O  0.77158307  0.71960811  0.78880859    -0.72600
C3846       C  0.74635584  0.70978128  0.78922828     0.98100
C3847       C  0.77688765  0.78213557  0.69543647     0.94500
Al3848     Al  0.77309002  0.73016353  0.69225851     1.55600
O3849       O  0.78007392  0.76969028  0.78123302    -0.77200
C3850       C  0.77618873  0.68585935  0.71862485     0.98700
C3851       C  0.71897109  0.71457607  0.70168060     0.93600
O3852       O  0.72641124  0.73421039  0.71922035    -0.82500
C3853       C  0.79075652  0.63103356  0.73192522    -0.12500
C3854       C  0.77158555  0.61028102  0.71409660     0.04500
C3855       C  0.75425232  0.61466866  0.69615381    -0.07800
C3856       C  0.75605488  0.63967345  0.69713576    -0.08500
C3857       C  0.77515799  0.66022651  0.71548372    -0.03100
C3858       C  0.79290860  0.65579169  0.73252096     0.03800
N3859       N  0.81387150  0.67657798  0.74995355     0.66300
H3860       H  0.80465293  0.62814289  0.74525855     0.15200
H3861       H  0.74226244  0.64287865  0.68407518     0.14900
N3862       N  0.73396991  0.59371895  0.67829615     0.74000
O3863       O  0.81289308  0.67522306  0.77830160    -0.39500
O3864       O  0.83499520  0.69420978  0.73706208    -0.39400
O3865       O  0.70952100  0.58574964  0.68331137    -0.40100
O3866       O  0.74051187  0.58550618  0.65528159    -0.40200
C3867       C  0.70491448  0.66342031  0.85362529    -0.12500
C3868       C  0.71051437  0.64284230  0.84920760     0.04500
C3869       C  0.72435855  0.64306703  0.82276770    -0.07800
C3870       C  0.73402295  0.66436870  0.80281210    -0.08500
C3871       C  0.73016154  0.68583895  0.80807866    -0.03100
C3872       C  0.71453472  0.68494740  0.83318673     0.03800
N3873       N  0.70975757  0.70632485  0.83923245     0.64500
H3874       H  0.69437824  0.66354189  0.87383984     0.15200
H3875       H  0.74558420  0.66452171  0.78344749     0.14900
N3876       N  0.72970867  0.62218398  0.81635439     0.74000
O3877       O  0.70119746  0.71484571  0.81871699    -0.39500
O3878       O  0.71136813  0.71484596  0.86575459    -0.39400
O3879       O  0.71221062  0.60146383  0.80305247    -0.40100
O3880       O  0.75333739  0.62654508  0.81858696    -0.40200
C3881       C  0.69806338  0.54375476  0.83197054    -0.12500
C3882       C  0.70864854  0.54531302  0.86080197     0.04500
C3883       C  0.72566595  0.53483067  0.86490214    -0.07800
C3884       C  0.73447630  0.52645103  0.84007660    -0.08500
C3885       C  0.72651854  0.52797511  0.81092459    -0.03100
C3886       C  0.70717624  0.53552821  0.80691131     0.03800
N3887       N  0.69889896  0.53775705  0.77737608     0.66300
H3888       H  0.68493623  0.55159204  0.82831576     0.15200
H3889       H  0.73581673  0.01585612  0.83841237     0.14900
N3890       N  0.73570886  0.53421522  0.89392192     0.74000
O3891       O  0.67438812  0.52446466  0.77044345    -0.39500
O3892       O  0.71551548  0.55515060  0.75942154    -0.39400
O3893       O  0.71581846  0.01750915  0.90756385    -0.40100
O3894       O  0.75141428  0.05337609  0.89114606    -0.40200
C3895       C  0.80595505  0.72774054  0.93417230    -0.12500
C3896       C  0.82327781  0.73416894  0.95859304     0.04500
C3897       C  0.81530427  0.71690288  0.98347107    -0.07800
C3898       C  0.79129478  0.69218530  0.98200711    -0.08500
C3899       C  0.77557603  0.68441072  0.95586825    -0.03100
C3900       C  0.78229153  0.70311942  0.93251254     0.03800
N3901       N  0.76634938  0.69674178  0.90597481     0.66300
H3902       H  0.81203239  0.74101788  0.91499115     0.15200
H3903       H  0.78618998  0.67820075  0.00028431     0.14900
N3904       N  0.83284726  0.72274980  0.00852467     0.74000
O3905       O  0.74423643  0.69601571  0.90708655    -0.39500
O3906       O  0.77613531  0.69598183  0.88075086    -0.39400
O3907       O  0.84058115  0.74377014  0.02362255    -0.40100
O3908       O  0.83934774  0.70617653  0.01672952    -0.40200
C3909       C  0.83145719  0.79379883  0.86242968    -0.12500
C3910       C  0.85921857  0.80868112  0.85630683     0.04500
C3911       C  0.86787185  0.81908230  0.82708664    -0.07800
C3912       C  0.84879639  0.81171349  0.80410981    -0.08500
C3913       C  0.82126937  0.79415725  0.80956572    -0.03100
C3914       C  0.81248566  0.78669455  0.83947460     0.03800
N3915       N  0.78474180  0.76874020  0.84618676     0.66300
H3916       H  0.82448327  0.78576059  0.88478036     0.15200
H3917       H  0.85573005  0.81783703  0.78124414     0.14900
N3918       N  0.89585973  0.83414981  0.81944077     0.74000
O3919       O  0.77697274  0.74523531  0.85431846    -0.39500
O3920       O  0.76863892  0.77724291  0.84740013    -0.39400
O3921       O  0.91096553  0.85606797  0.83239596    -0.40100
O3922       O  0.90456768  0.82770088  0.79674196    -0.40200
C3923       C  0.87709553  0.60953580  0.70358058    -0.12500
C3924       C  0.85340892  0.60304306  0.68842928     0.04500
C3925       C  0.85318937  0.62172264  0.66874522    -0.07800
C3926       C  0.87576518  0.64735529  0.66683753    -0.08500
C3927       C  0.89860712  0.65457110  0.68400920    -0.03100
C3928       C  0.90003234  0.63505873  0.70114573     0.03800
N3929       N  0.92388717  0.64134693  0.71755186     0.66300
H3930       H  0.87715382  0.59510809  0.71866031     0.15200
H3931       H  0.87487797  0.66218621  0.65335284     0.14900
N3932       N  0.82913220  0.61599237  0.65354718     0.74000
O3933       O  0.92225211  0.62880111  0.74125000    -0.39500
O3934       O  0.94681099  0.65717184  0.70659252    -0.39400
O3935       O  0.81797141  0.62923175  0.65956672    -0.40100
O3936       O  0.82049267  0.59948360  0.63212046    -0.40200
C3937       C  0.85406797  0.73755370  0.66861361    -0.12500
C3938       C  0.85439810  0.75736107  0.68671261     0.04500
C3939       C  0.87903223  0.77803658  0.69778817    -0.07800
C3940       C  0.90236887  0.77688939  0.69305913    -0.08500
C3941       C  0.90104321  0.75442062  0.67965996    -0.03100
C3942       C  0.87701113  0.73545273  0.66540568     0.03800
N3943       N  0.87435470  0.71200914  0.65153620     0.66300
H3944       H  0.83505056  0.72170581  0.66005564     0.15200
H3945       H  0.92090936  0.79190550  0.70326837     0.14900
N3946       N  0.88025295  0.79866213  0.71648377     0.74000
O3947       O  0.89113890  0.71399849  0.63186625    -0.39500
O3948       O  0.85305380  0.68984745  0.65534691    -0.39400
O3949       O  0.86936331  0.79295685  0.74218258    -0.40100
O3950       O  0.89651738  0.82271855  0.71004425    -0.40200
C3951       C  0.97729948  0.78222546  0.82866475    -0.12500
C3952       C  0.97001517  0.78591011  0.79984672     0.04500
C3953       C  0.95983121  0.80316045  0.79653782    -0.07800
C3954       C  0.95574866  0.81502624  0.82195080    -0.08500
C3955       C  0.95989169  0.80876828  0.85092218    -0.03100
C3956       C  0.97214312  0.79331618  0.85434688     0.03800
N3957       N  0.47035993  0.78131479  0.88947064     0.66300
H3958       H  0.48122589  0.76502916  0.83754451     0.15200
H3959       H  0.94575279  0.82627591  0.81929184     0.14900
N3960       N  0.95020970  0.80619121  0.76825059     0.74000
O3961       O  0.47556433  0.76298922  0.89298464    -0.39500
O3962       O  0.47062949  0.79446874  0.91225343    -0.39400
O3963       O  0.92973008  0.78642075  0.75716777    -0.40100
O3964       O  0.95677975  0.82922126  0.75936541    -0.40200
C3965       C  0.76930215  0.56254839  0.97132005    -0.12500
C3966       C  0.77204627  0.58711070  0.97899451     0.04500
C3967       C  0.79658624  0.60764510  0.99017829    -0.07800
C3968       C  0.81892954  0.60464718  0.98994604    -0.08500
C3969       C  0.81726948  0.58166712  0.97787136    -0.03100
C3970       C  0.79186918  0.55942397  0.97071887     0.03800
N3971       N  0.78898739  0.53428725  0.96187633     0.66300
H3972       H  0.75009238  0.54667913  0.96330810     0.15200
H3973       H  0.83832076  0.62170408  0.99563600     0.14900
N3974       N  0.79999743  0.63300182  0.99765452     0.74000
O3975       O  0.80706892  0.52906650  0.96791674    -0.39500
O3976       O  0.76705862  0.51598247  0.95130979    -0.39400
O3977       O  0.79257541  0.63658310  0.02314356    -0.40100
O3978       O  0.81370573  0.65263573  0.98057713    -0.40200
C3979       C  0.86316341  0.54064595  0.82683936    -0.12500
C3980       C  0.85117179  0.53660521  0.85539566     0.04500
C3981       C  0.82281166  0.52220450  0.85759493    -0.07800
C3982       C  0.80726081  0.51514243  0.83135292    -0.08500
C3983       C  0.81946147  0.52270404  0.80290741    -0.03100
C3984       C  0.84761300  0.53431037  0.80064665     0.03800
N3985       N  0.86087990  0.54215403  0.77207269     0.66300
H3986       H  0.88487083  0.55195685  0.82474655     0.15200
H3987       H  0.78497034  0.02424454  0.84526353     0.14900
N3988       N  0.80973761  0.51714965  0.88639066     0.74000
O3989       O  0.87553327  0.56653664  0.76586537    -0.39500
O3990       O  0.86103653  0.52495005  0.75491886    -0.39400
O3991       O  0.78989957  0.52028615  0.89019623    -0.40100
O3992       O  0.82927053  0.03924195  0.91347918    -0.40200
C3993       C  0.91892925  0.71605251  0.92448473    -0.12500
C3994       C  0.91567923  0.72770338  0.95064032     0.04500
C3995       C  0.91248441  0.71475756  0.97865380    -0.07800
C3996       C  0.90945299  0.68917624  0.97897827    -0.08500
C3997       C  0.91045537  0.67694027  0.95214153    -0.03100
C3998       C  0.91638560  0.69114229  0.92504886     0.03800
N3999       N  0.92006550  0.68049411  0.89767672     0.66300
H4000       H  0.92236688  0.72575617  0.90285131     0.15200
H4001       H  0.90544827  0.67847936  0.00000596     0.14900
N4002       N  0.91217208  0.72701704  0.00664294     0.74000
O4003       O  0.90482257  0.67654986  0.87568821    -0.39500
O4004       O  0.94197206  0.68121129  0.89336300    -0.39400
O4005       O  0.89704209  0.71297144  0.02790230    -0.40100
O4006       O  0.93019615  0.75079229  0.01195526    -0.40200
C4007       C  0.95729868  0.65906820  0.84010834    -0.12500
C4008       C  0.92971596  0.64049195  0.84385161     0.04500
C4009       C  0.91146393  0.64049617  0.82302457    -0.07800
C4010       C  0.92060595  0.65952743  0.80042355    -0.08500
C4011       C  0.94782163  0.67939543  0.79745462    -0.03100
C4012       C  0.96648154  0.67889822  0.81751575     0.03800
N4013       N  0.49559853  0.70222339  0.82278291     0.66300
H4014       H  0.97146695  0.65952730  0.85619428     0.15200
H4015       H  0.90570994  0.65873389  0.78520883     0.14900
N4016       N  0.88320110  0.62153806  0.82484637     0.74000
O4017       O  0.50123520  0.72308333  0.83723959    -0.39500
O4018       O  0.51420924  0.69967718  0.81141100    -0.39400
O4019       O  0.86645681  0.62926118  0.82393928    -0.40100
O4020       O  0.87487251  0.59695294  0.82457149    -0.40200
C4021       C  0.89382967  0.01435797  0.99098665    -0.12500
C4022       C  0.88070815  0.52325656  0.97952867     0.04500
C4023       C  0.88843560  0.52039778  0.00845958    -0.07800
C4024       C  0.87531363  0.49549877  0.02243367    -0.08500
C4025       C  0.85572729  0.97299728  0.01010578    -0.03100
C4026       C  0.88379298  0.99037285  0.00704591     0.03800
N4027       N  0.90232563  0.98392950  0.01979968     0.66300
H4028       H  0.91536170  0.02762970  0.98898520     0.15200
H4029       H  0.88138718  0.49377551  0.04488936     0.14900
N4030       N  0.90958371  0.54272656  0.02387906     0.74000
O4031       O  0.90510048  0.96565792  0.00832097    -0.39500
O4032       O  0.91779572  0.99817521  0.04057807    -0.39400
O4033       O  0.90460362  0.55132368  0.04770543    -0.40100
O4034       O  0.93357697  0.55237745  0.01512372    -0.40200
C4035       C  0.86188797  0.87804406  0.98607177    -0.12500
C4036       C  0.85956716  0.87584813  0.01760244     0.04500
C4037       C  0.87021214  0.86205711  0.03256368    -0.07800
C4038       C  0.88234262  0.85052094  0.01593614    -0.08500
C4039       C  0.88459602  0.85251724  0.98438403    -0.03100
C4040       C  0.87426984  0.86664280  0.96943437     0.03800
N4041       N  0.87546533  0.86901165  0.93738706     0.66300
H4042       H  0.85389028  0.88859131  0.97418295     0.15200
H4043       H  0.89004192  0.83981607  0.02804635     0.14900
N4044       N  0.86781450  0.85840088  0.06449145     0.74000
O4045       O  0.85882392  0.84977942  0.92139454    -0.39500
O4046       O  0.89120446  0.89117408  0.92526431    -0.39400
O4047       O  0.85487745  0.83511890  0.07503979    -0.40100
O4048       O  0.88338002  0.87735604  0.08149908    -0.40200
C4049       C  0.81679717  0.83338476  0.13770143    -0.12500
C4050       C  0.82549287  0.85947504  0.14730036     0.04500
C4051       C  0.82699167  0.86488727  0.17828497    -0.07800
C4052       C  0.81598433  0.84377613  0.19874321    -0.08500
C4053       C  0.80311253  0.81725226  0.18870676    -0.03100
C4054       C  0.80595297  0.81208330  0.15823070     0.03800
N4055       N  0.79546178  0.78537681  0.14738859     0.66300
H4056       H  0.81581571  0.82925267  0.11381000     0.15200
H4057       H  0.81409746  0.84797022  0.22215558     0.14900
N4058       N  0.83465770  0.89089850  0.18892860     0.74000
O4059       O  0.78645392  0.77920513  0.12098057    -0.39500
O4060       O  0.79907553  0.76917824  0.16229723    -0.39400
O4061       O  0.81739993  0.89796941  0.18974589    -0.40100
O4062       O  0.85614209  0.90399770  0.20353873    -0.40200
C4063       C  0.52894480  0.65449880  0.98302844    -0.12500
C4064       C  0.52952453  0.64759816  0.01331114     0.04500
C4065       C  0.50508531  0.62817534  0.02679561    -0.07800
C4066       C  0.97888911  0.61926171  0.00924662    -0.08500
C4067       C  0.97902483  0.62558442  0.97872313    -0.03100
C4068       C  0.50469296  0.64344060  0.96683092     0.03800
N4069       N  0.50503549  0.65259866  0.93690799     0.66300
H4070       H  0.54733017  0.66930458  0.97207942     0.15200
H4071       H  0.96013247  0.60545426  0.02034171     0.14900
N4072       N  0.00051515  0.62246386  0.05692392     0.74000
O4073       O  0.49093931  0.66271249  0.93059817    -0.39500
O4074       O  0.02124652  0.65029158  0.91607588    -0.39400
O4075       O  0.49350201  0.62576312  0.07753732    -0.40100
O4076       O  0.00763623  0.60614000  0.06419101    -0.40200
C4077       C  0.65725318  0.66812188  0.99780020    -0.12500
C4078       C  0.63155269  0.65232359  0.01041862     0.04500
C4079       C  0.61778690  0.62448762  0.00529399    -0.07800
C4080       C  0.63003137  0.61310108  0.98830225    -0.08500
C4081       C  0.65600276  0.62897575  0.97643561    -0.03100
C4082       C  0.66947680  0.65675370  0.98107970     0.03800
N4083       N  0.69549085  0.67374884  0.96828582     0.66300
H4084       H  0.66811612  0.68949471  0.00113376     0.15200
H4085       H  0.61963790  0.59168639  0.98541045     0.14900
N4086       N  0.59139135  0.60750337  0.01714877     0.74000
O4087       O  0.69803061  0.67663219  0.94013736    -0.39500
O4088       O  0.71522880  0.68810716  0.98503396    -0.39400
O4089       O  0.57119278  0.60388174  0.00258862    -0.40100
O4090       O  0.58815637  0.59397854  0.04048707    -0.40200
C4091       C  0.72580769  0.80619292  0.03578384    -0.12500
C4092       C  0.73730855  0.81896847  0.06310584     0.04500
C4093       C  0.72559006  0.80537751  0.09031572    -0.07800
C4094       C  0.70200498  0.78055271  0.08987298    -0.08500
C4095       C  0.68916466  0.76855996  0.06275693    -0.03100
C4096       C  0.70196830  0.78107329  0.03533671     0.03800
N4097       N  0.69087349  0.76880123  0.00696512     0.66300
H4098       H  0.73476552  0.81617565  0.01473043     0.15200
H4099       H  0.69299406  0.77132867  0.11124120     0.14900
N4100       N  0.73690954  0.81689386  0.11885473     0.74000
O4101       O  0.68739615  0.78173665  0.98668880    -0.39500
O4102       O  0.68687418  0.74588483  0.00114817    -0.39400
O4103       O  0.72497313  0.82495914  0.13591650    -0.40100
O4104       O  0.75564410  0.81431786  0.12921915    -0.40200
C4105       C  0.67443367  0.69836086  0.13320098    -0.12500
C4106       C  0.64855675  0.68603593  0.14588235     0.04500
C4107       C  0.64585772  0.68471687  0.17750333    -0.07800
C4108       C  0.66881794  0.69667047  0.19571308    -0.08500
C4109       C  0.69466500  0.71108149  0.18299106    -0.03100
C4110       C  0.69747722  0.71130911  0.15135752     0.03800
N4111       N  0.72345494  0.72617666  0.13739114     0.66300
H4112       H  0.67670865  0.70017312  0.10894715     0.15200
H4113       H  0.66630866  0.69724206  0.21984346     0.14900
N4114       N  0.61998326  0.67389633  0.19136092     0.74000
O4115       O  0.74313098  0.72530738  0.14797999    -0.39500
O4116       O  0.72647216  0.73888984  0.11339936    -0.39400
O4117       O  0.60860575  0.65077923  0.20235952    -0.40100
O4118       O  0.61076015  0.68889432  0.19716750    -0.40200
C4119       C  0.61753636  0.75360612  0.29397486    -0.12500
C4120       C  0.60690153  0.75535829  0.26644895     0.04500
C4121       C  0.61917349  0.75392569  0.23939759    -0.07800
C4122       C  0.64242253  0.75259778  0.24033691    -0.08500
C4123       C  0.65495545  0.75388745  0.26767016    -0.03100
C4124       C  0.64170391  0.75335885  0.29490326     0.03800
N4125       N  0.65279381  0.75362357  0.32360588     0.66300
H4126       H  0.60821023  0.75445688  0.31487497     0.15200
H4127       H  0.65167806  0.75249510  0.21906182     0.14900
N4128       N  0.60940603  0.75558244  0.21051970     0.74000
O4129       O  0.67157688  0.77529996  0.33394606    -0.39500
O4130       O  0.63969616  0.73431788  0.34129664    -0.39400
O4131       O  0.62009159  0.77779149  0.19733350    -0.40100
O4132       O  0.59547523  0.73459743  0.19547213    -0.40200
C4133       C  0.54300427  0.67775594  0.17230550    -0.12500
C4134       C  0.54129091  0.68202918  0.14167849     0.04500
C4135       C  0.52435569  0.69157597  0.13269987    -0.07800
C4136       C  0.51404966  0.70160951  0.15450419    -0.08500
C4137       C  0.52060560  0.70236182  0.18489880    -0.03100
C4138       C  0.53281836  0.68785231  0.19412125     0.03800
N4139       N  0.53643094  0.68441924  0.22534234     0.66300
H4140       H  0.55523703  0.66966239  0.17943693     0.15200
H4141       H  0.50394737  0.71189958  0.14721277     0.14900
N4142       N  0.51871735  0.69269413  0.10155439     0.74000
O4143       O  0.54905094  0.70426197  0.24244748    -0.39500
O4144       O  0.53007312  0.66163452  0.23490031    -0.39400
O4145       O  0.49468714  0.68269392  0.09318817    -0.40100
O4146       O  0.53747550  0.70562144  0.08288304    -0.40200
C4147       C  0.52211791  0.88802461  0.00682541    -0.12500
C4148       C  0.53522858  0.87368402  0.01152211     0.04500
C4149       C  0.52333220  0.84739337  0.00026534    -0.07800
C4150       C  0.49814784  0.83552222  0.98651130    -0.08500
C4151       C  0.98329913  0.84913495  0.98494925    -0.03100
C4152       C  0.98398154  0.85025700  0.01667132     0.03800
N4153       N  0.95990615  0.83618112  0.03424847     0.66300
H4154       H  0.53105183  0.90830766  0.01495542     0.15200
H4155       H  0.48901990  0.81511538  0.97870706     0.14900
N4156       N  0.53638780  0.83232760  0.00280245     0.74000
O4157       O  0.95014690  0.81170898  0.03940730    -0.39500
O4158       O  0.95151748  0.84897524  0.04914214    -0.39400
O4159       O  0.52799529  0.81374178  0.02176021    -0.40100
O4160       O  0.55250594  0.83408860  0.98239339    -0.40200
C4161       C  0.63081992  0.97532500  0.98678546    -0.12500
C4162       C  0.63291410  0.97596415  0.01835268     0.04500
C4163       C  0.64583935  0.00104924  0.03280569    -0.07800
C4164       C  0.64671799  0.52451788  0.01618752    -0.08500
C4165       C  0.65223694  0.52517807  0.98520506    -0.03100
C4166       C  0.64531806  0.50098735  0.97055209     0.03800
N4167       N  0.65129743  0.50042626  0.93935775     0.66300
H4168       H  0.62098616  0.95633955  0.97516159     0.15200
H4169       H  0.65155986  0.54274541  0.02790023     0.14900
N4170       N  0.64887700  0.00315548  0.06477700     0.74000
O4171       O  0.65995105  0.00420160  0.92156406    -0.39500
O4172       O  0.63250238  0.48784006  0.92087319    -0.39400
O4173       O  0.67200894  0.01328264  0.07599067    -0.40100
O4174       O  0.62943283  0.99956706  0.08125004    -0.40200
C4175       C  0.59479934  0.78104603  0.03059505    -0.12500
C4176       C  0.59253761  0.76797575  0.05774071     0.04500
C4177       C  0.58742149  0.77776511  0.08460824    -0.07800
C4178       C  0.58658638  0.80110429  0.08414929    -0.08500
C4179       C  0.59214836  0.81615978  0.05775953    -0.03100
C4180       C  0.59518495  0.80532910  0.03035513     0.03800
N4181       N  0.59983924  0.81898370  0.00235020     0.66300
H4182       H  0.59862338  0.77364629  0.00985307     0.15200
H4183       H  0.58361015  0.80844067  0.10543051     0.14900
N4184       N  0.58472817  0.76532309  0.11310695     0.74000
O4185       O  0.62285113  0.83864118  0.99665017    -0.39500
O4186       O  0.58384792  0.80739286  0.98090628    -0.39400
O4187       O  0.60548437  0.77260325  0.12865661    -0.40100
O4188       O  0.56214531  0.75406612  0.12614983    -0.40200
C4189       C  0.54128462  0.85520258  0.17414729    -0.12500
C4190       C  0.54199976  0.85194560  0.14288322     0.04500
C4191       C  0.52811016  0.82588799  0.13075705    -0.07800
C4192       C  0.51680395  0.80384929  0.15031584    -0.08500
C4193       C  0.51806422  0.80714140  0.18166794    -0.03100
C4194       C  0.52888902  0.83309503  0.19360814     0.03800
N4195       N  0.52999687  0.83735459  0.22554154     0.66300
H4196       H  0.55213447  0.87507970  0.18361931     0.15200
H4197       H  0.00506101  0.78531881  0.14171550     0.14900
N4198       N  0.52778564  0.82155124  0.09884470     0.74000
O4199       O  0.55071747  0.85637378  0.23738439    -0.39500
O4200       O  0.50930601  0.82376358  0.24157079    -0.39400
O4201       O  0.52777267  0.80132484  0.08865441    -0.40100
O4202       O  0.01002699  0.83187812  0.08644368    -0.40200
C4203       C  0.70410886  0.91546785  0.03608552    -0.12500
C4204       C  0.69024807  0.91272310  0.06315934     0.04500
C4205       C  0.70297119  0.91403322  0.09065787    -0.07800
C4206       C  0.72793976  0.91596572  0.09059329    -0.08500
C4207       C  0.74079973  0.91620381  0.06360694    -0.03100
C4208       C  0.72933062  0.91730467  0.03610380     0.03800
N4209       N  0.74294255  0.92013767  0.00815130     0.66300
H4210       H  0.69484604  0.91499240  0.01484946     0.15200
H4211       H  0.73639392  0.91550067  0.11207308     0.14900
N4212       N  0.69027009  0.91213260  0.11904934     0.74000
O4213       O  0.73150981  0.90327727  0.98741262    -0.39500
O4214       O  0.76508740  0.94109686  0.00294481    -0.39400
O4215       O  0.68037966  0.89076210  0.13384744    -0.40100
O4216       O  0.69450699  0.93312603  0.13213678    -0.40200
C4217       C  0.71987558  0.84568461  0.28680155    -0.12500
C4218       C  0.74430543  0.84636761  0.28378748     0.04500
C4219       C  0.76855551  0.87117436  0.28207333    -0.07800
C4220       C  0.76745160  0.89475546  0.28123337    -0.08500
C4221       C  0.74271708  0.89377192  0.28273816    -0.03100
C4222       C  0.71885574  0.86904742  0.28672590     0.03800
N4223       N  0.69340319  0.86740372  0.29024100     0.66300
H4224       H  0.70127649  0.82664433  0.28823415     0.15200
H4225       H  0.78576521  0.91377845  0.27812774     0.14900
N4226       N  0.79401763  0.87262288  0.27937141     0.74000
O4227       O  0.67292806  0.84938909  0.27692582    -0.39500
O4228       O  0.69053932  0.88124877  0.31016922    -0.39400
O4229       O  0.81257075  0.89049252  0.26346385    -0.40100
O4230       O  0.79894538  0.85773368  0.29510341    -0.40200
C4231       C  0.81946618  0.97331416  0.19609345    -0.12500
C4232       C  0.80198877  0.98139201  0.18548716     0.04500
C4233       C  0.80002600  0.98375482  0.15426943    -0.07800
C4234       C  0.81273242  0.97485045  0.13431364    -0.08500
C4235       C  0.82778208  0.96395359  0.14500719    -0.03100
C4236       C  0.83304839  0.96521659  0.17617267     0.03800
N4237       N  0.85073434  0.95688682  0.18786975     0.66300
H4238       H  0.82087369  0.97141079  0.22012083     0.15200
H4239       H  0.80827646  0.97363773  0.11051783     0.14900
N4240       N  0.78213088  0.99148489  0.14261717     0.74000
O4241       O  0.86741459  0.95531062  0.17077380    -0.39500
O4242       O  0.85171657  0.95370358  0.21580830    -0.39400
O4243       O  0.78879596  0.01568171  0.14301967    -0.40100
O4244       O  0.76118639  0.97472751  0.12894033    -0.40200
C4245       C  0.64383514  0.88620347  0.23627141    -0.12500
C4246       C  0.65435310  0.89903650  0.26390816     0.04500
C4247       C  0.63907890  0.88762279  0.29039696    -0.07800
C4248       C  0.61518831  0.86254578  0.28890529    -0.08500
C4249       C  0.60571544  0.84907923  0.26132109    -0.03100
C4250       C  0.62012829  0.86161220  0.23471773     0.03800
N4251       N  0.61270196  0.84845182  0.20615690     0.66300
H4252       H  0.65497806  0.89436832  0.21551596     0.15200
H4253       H  0.60400410  0.85349832  0.30939412     0.14900
N4254       N  0.64725114  0.90133106  0.31867163     0.74000
O4255       O  0.59826352  0.85259679  0.18856639    -0.39500
O4256       O  0.62322789  0.83531885  0.19706841    -0.39400
O4257       O  0.65346055  0.92538397  0.32044263    -0.40100
O4258       O  0.64490494  0.88865591  0.34248895    -0.40200
C4259       C  0.67030525  0.96643086  0.19851711    -0.12500
C4260       C  0.69617896  0.98172196  0.18609377     0.04500
C4261       C  0.69910136  0.98732811  0.15503039    -0.07800
C4262       C  0.67630370  0.97451854  0.13656933    -0.08500
C4263       C  0.65093021  0.95617800  0.14849660    -0.03100
C4264       C  0.64764249  0.95310354  0.18000930     0.03800
N4265       N  0.62227557  0.93432017  0.19339341     0.66300
H4266       H  0.66808364  0.96189943  0.22235786     0.15200
H4267       H  0.67874692  0.97682672  0.11237295     0.14900
N4268       N  0.72232592  0.50808246  0.14523863     0.74000
O4269       O  0.60980623  0.91041738  0.18462492    -0.39500
O4270       O  0.61447545  0.94051280  0.21704735    -0.39400
O4271       O  0.72723535  0.50834202  0.11746198    -0.40100
O4272       O  0.73955912  0.52638217  0.16179315    -0.40200
C4273       C  0.79787947  0.83243889  0.63138922    -0.12500
C4274       C  0.81538733  0.85625596  0.64631517     0.04500
C4275       C  0.81833901  0.85577682  0.67775931    -0.07800
C4276       C  0.80441618  0.83169858  0.69353857    -0.08500
C4277       C  0.78762975  0.80759582  0.67856352    -0.03100
C4278       C  0.78407856  0.80820173  0.64709116     0.03800
N4279       N  0.76661509  0.78442900  0.63068257     0.66300
H4280       H  0.79527309  0.83256772  0.60728929     0.15200
H4281       H  0.80760536  0.83179407  0.71753377     0.14900
N4282       N  0.83531705  0.87970242  0.69407096     0.74000
O4283       O  0.74179641  0.77148500  0.63668056    -0.39500
O4284       O  0.77557655  0.77755596  0.60858610    -0.39400
O4285       O  0.82559516  0.89278304  0.70557959    -0.40100
O4286       O  0.85906556  0.88590819  0.70014894    -0.40200
C4287       C  0.80630145  0.94726861  0.67101919    -0.12500
C4288       C  0.81794817  0.95632054  0.64249093     0.04500
C4289       C  0.81848524  0.97871462  0.63017861    -0.07800
C4290       C  0.80766391  0.99174382  0.64639814    -0.08500
C4291       C  0.79581715  0.98271565  0.67492135    -0.03100
C4292       C  0.79495983  0.95998309  0.68707875     0.03800
N4293       N  0.78334038  0.94997324  0.71601592     0.66300
H4294       H  0.80593692  0.93016579  0.68085698     0.15200
H4295       H  0.78776670  0.49264326  0.62874987     0.14900
N4296       N  0.83192812  0.98976512  0.60229839     0.74000
O4297       O  0.75901970  0.93175993  0.71812357    -0.39500
O4298       O  0.79816145  0.95669919  0.73888788    -0.39400
O4299       O  0.78998868  0.46236809  0.57632552    -0.40100
O4300       O  0.83283112  0.48972837  0.58316777    -0.40200
C4301       C  0.83987186  0.80656462  0.35993711    -0.12500
C4302       C  0.86419473  0.81956886  0.34371341     0.04500
C4303       C  0.86320653  0.81979286  0.31193063    -0.07800
C4304       C  0.83836344  0.80682333  0.29724520    -0.08500
C4305       C  0.81405828  0.79370350  0.31350360    -0.03100
C4306       C  0.81502675  0.79372120  0.34528101     0.03800
N4307       N  0.79103583  0.78014418  0.36308425     0.66300
H4308       H  0.84006256  0.80611671  0.38429807     0.15200
H4309       H  0.83814216  0.80734222  0.27288444     0.14900
N4310       N  0.88719777  0.83270018  0.29410800     0.74000
O4311       O  0.77710217  0.75504655  0.36261561    -0.39500
O4312       O  0.78529695  0.79299769  0.38158787    -0.39400
O4313       O  0.89702290  0.81939212  0.28352260    -0.40100
O4314       O  0.89639526  0.85638520  0.28559484    -0.40200
C4315       C  0.94970205  0.79099355  0.33657201    -0.12500
C4316       C  0.96526434  0.81855429  0.34182065     0.04500
C4317       C  0.99243960  0.83239319  0.33205517    -0.07800
C4318       C  0.00353254  0.81839481  0.31863086    -0.08500
C4319       C  0.98793718  0.79095298  0.31318879    -0.03100
C4320       C  0.96064664  0.77715438  0.32214653     0.03800
N4321       N  0.94399603  0.74902740  0.31756577     0.66300
H4322       H  0.92886764  0.78007042  0.34379016     0.15200
H4323       H  0.52144602  0.83051845  0.30541310     0.14900
N4324       N  0.50380223  0.85981691  0.32913266     0.74000
O4325       O  0.95073093  0.73333910  0.32826179    -0.39500
O4326       O  0.92149144  0.73967996  0.30497177    -0.39400
O4327       O  0.52315221  0.87288392  0.34681943    -0.40100
O4328       O  0.50015045  0.87157209  0.30762003    -0.40200
C4329       C  0.87324230  0.84589839  0.49947067    -0.12500
C4330       C  0.87776345  0.85489297  0.46957292     0.04500
C4331       C  0.86675557  0.87026672  0.45966984    -0.07800
C4332       C  0.85617910  0.88043046  0.48086447    -0.08500
C4333       C  0.85512482  0.87457469  0.51150825    -0.03100
C4334       C  0.86170150  0.85542550  0.52054185     0.03800
N4335       N  0.85887966  0.84709838  0.55127950     0.66300
H4336       H  0.88133462  0.83389337  0.50725699     0.15200
H4337       H  0.85042471  0.89450618  0.47373890     0.14900
N4338       N  0.86822122  0.87736064  0.42847111     0.74000
O4339       O  0.87085585  0.86385691  0.57195581    -0.39500
O4340       O  0.84592519  0.82261396  0.55755409    -0.39400
O4341       O  0.86551594  0.86098694  0.40815051    -0.40100
O4342       O  0.86988631  0.89898037  0.42108347    -0.40200
C4343       C  0.72813854  0.68481176  0.32574814    -0.12500
C4344       C  0.71158157  0.69312442  0.31289323     0.04500
C4345       C  0.68346194  0.67685880  0.31572212    -0.07800
C4346       C  0.67234728  0.65243862  0.33063287    -0.08500
C4347       C  0.68886077  0.64421837  0.34364766    -0.03100
C4348       C  0.71697566  0.66059479  0.34133789     0.03800
N4349       N  0.73430904  0.65248109  0.35390016     0.66300
H4350       H  0.74978631  0.69724448  0.32382771     0.15200
H4351       H  0.65068505  0.64000435  0.33250234     0.14900
N4352       N  0.66595177  0.68466674  0.30303332     0.74000
O4353       O  0.73446816  0.63244888  0.34337689    -0.39500
O4354       O  0.75061597  0.66623018  0.37431153    -0.39400
O4355       O  0.65633640  0.67654075  0.27717942    -0.40100
O4356       O  0.65707871  0.69632471  0.31924553    -0.40200
C4357       C  0.68618400  0.50232246  0.32650714    -0.12500
C4358       C  0.71285921  0.51717424  0.31610177     0.04500
C4359       C  0.72757098  0.54487019  0.32209164    -0.07800
C4360       C  0.71555223  0.55694868  0.33832869    -0.08500
C4361       C  0.68881598  0.54196911  0.34845713    -0.03100
C4362       C  0.67414055  0.51433610  0.34241301     0.03800
N4363       N  0.64694172  0.49808086  0.35260502     0.66300
H4364       H  0.67917820  0.98083038  0.32713073     0.15200
H4365       H  0.72693752  0.57822423  0.34233774     0.14900
N4366       N  0.75474127  0.56099534  0.31202363     0.74000
O4367       O  0.63218697  0.98600933  0.34275244    -0.39500
O4368       O  0.64167556  0.49495690  0.38041351    -0.39400
O4369       O  0.76018229  0.57651488  0.29002367    -0.40100
O4370       O  0.77351603  0.56135834  0.32659400    -0.40200
C4371       C  0.56165199  0.96891096  0.36271564    -0.12500
C4372       C  0.57191128  0.98240900  0.39004998     0.04500
C4373       C  0.55853142  0.96964434  0.41719038    -0.07800
C4374       C  0.53508963  0.94493896  0.41618177    -0.08500
C4375       C  0.52306120  0.93277065  0.38883808    -0.03100
C4376       C  0.53713890  0.94450426  0.36170518     0.03800
N4377       N  0.52715270  0.93231251  0.33301544     0.66300
H4378       H  0.57187607  0.97808222  0.34179889     0.15200
H4379       H  0.52498595  0.93647623  0.43738732     0.14900
N4380       N  0.57527341  0.47596367  0.43879557     0.74000
O4381       O  0.50736592  0.93256847  0.32179639    -0.39500
O4382       O  0.54209028  0.92803867  0.31592933    -0.39400
O4383       O  0.56581756  0.48383309  0.45941284    -0.40100
O4384       O  0.59231806  0.46949754  0.44523251    -0.40200
C4385       C  0.54488350  0.83632246  0.63110873    -0.12500
C4386       C  0.54629600  0.85889638  0.64434588     0.04500
C4387       C  0.53576315  0.85669707  0.67389763    -0.07800
C4388       C  0.52395508  0.83221254  0.68904088    -0.08500
C4389       C  0.52209864  0.80970064  0.67547843    -0.03100
C4390       C  0.53271919  0.81180504  0.64626772     0.03800
N4391       N  0.53072286  0.78899305  0.63153881     0.66300
H4392       H  0.55260987  0.83751930  0.60851087     0.15200
H4393       H  0.04461699  0.79962545  0.64427284     0.14900
N4394       N  0.53652503  0.87890831  0.68882392     0.74000
O4395       O  0.52265310  0.78359041  0.60472988    -0.39500
O4396       O  0.53815451  0.77486259  0.64486227    -0.39400
O4397       O  0.09384950  0.84868800  0.61327207    -0.40100
O4398       O  0.05945767  0.83542816  0.58361934    -0.40200
C4399       C  0.66989697  0.96994351  0.62515510    -0.12500
C4400       C  0.64535466  0.95838836  0.64090948     0.04500
C4401       C  0.64580766  0.95747840  0.67274623    -0.07800
C4402       C  0.67036056  0.96814238  0.68784750    -0.08500
C4403       C  0.69490892  0.98020417  0.67214898    -0.03100
C4404       C  0.69448077  0.98063030  0.64025963     0.03800
N4405       N  0.71719014  0.49148260  0.62599059     0.66300
H4406       H  0.67004368  0.97050020  0.60078481     0.15200
H4407       H  0.67015784  0.96761114  0.71221623     0.14900
N4408       N  0.62161026  0.94544258  0.69029125     0.74000
O4409       O  0.73239831  0.48216055  0.62962665    -0.39500
O4410       O  0.72190250  0.50761962  0.60483274    -0.39400
O4411       O  0.61610003  0.92569907  0.70665434    -0.40100
O4412       O  0.60958661  0.95807322  0.69495924    -0.40200
C4413       C  0.97932114  0.92511846  0.62417763    -0.12500
C4414       C  0.98523583  0.91494929  0.59826466     0.04500
C4415       C  0.96519230  0.90265473  0.57591497    -0.07800
C4416       C  0.94101813  0.90241292  0.57916697    -0.08500
C4417       C  0.93631040  0.91493082  0.60358506    -0.03100
C4418       C  0.95524048  0.92526659  0.62705079     0.03800
N4419       N  0.95135511  0.93774029  0.65286458     0.66300
H4420       H  0.48678020  0.91693164  0.64597453     0.15200
H4421       H  0.92659397  0.89400534  0.56106218     0.14900
N4422       N  0.96909889  0.89138111  0.54900460     0.74000
O4423       O  0.96857565  0.96154225  0.65927140    -0.39500
O4424       O  0.93262164  0.92403751  0.67129510    -0.39400
O4425       O  0.95218453  0.86747306  0.54264304    -0.40100
O4426       O  0.98361645  0.90666205  0.52813869    -0.40200
C4427       C  0.64209268  0.00859046  0.52616157    -0.12500
C4428       C  0.62968290  0.98263867  0.51415453     0.04500
C4429       C  0.63083410  0.97949587  0.48278101    -0.07800
C4430       C  0.64702630  0.50744931  0.47410776    -0.08500
C4431       C  0.64841829  0.53161469  0.48131106    -0.03100
C4432       C  0.64273577  0.53576366  0.51098258     0.03800
N4433       N  0.64508377  0.56044446  0.51974748     0.66300
H4434       H  0.64118767  0.01132927  0.55020543     0.15200
H4435       H  0.65193976  0.50435673  0.45143531     0.14900
N4436       N  0.61939863  0.95347247  0.46967922     0.74000
O4437       O  0.62420350  0.56161223  0.52464779    -0.39500
O4438       O  0.66766036  0.57960364  0.52754595    -0.39400
O4439       O  0.60480612  0.94742274  0.44665139    -0.40100
O4440       O  0.62600815  0.93737450  0.47934910    -0.40200
C4441       C  0.53085821  0.87343376  0.47862146    -0.12500
C4442       C  0.52736919  0.87058995  0.50990908     0.04500
C4443       C  0.50132635  0.85353701  0.52168198    -0.07800
C4444       C  0.98078651  0.84320391  0.50142860    -0.08500
C4445       C  0.98389136  0.84910651  0.47052110    -0.03100
C4446       C  0.01019863  0.86335698  0.45819330     0.03800
N4447       N  0.01456923  0.86724011  0.42623318     0.66300
H4448       H  0.55084797  0.88636038  0.46955532     0.15200
H4449       H  0.96080811  0.83186059  0.51110173     0.14900
N4450       N  0.49715246  0.84872798  0.55347650     0.74000
O4451       O  0.53413888  0.88559915  0.41690101    -0.39500
O4452       O  0.99900720  0.84921659  0.40826463    -0.39400
O4453       O  0.47706004  0.84754742  0.56637857    -0.40100
O4454       O  0.51206434  0.84301191  0.56818192    -0.40200
C4455       C  0.65276573  0.66070160  0.66844683    -0.12500
C4456       C  0.64102592  0.67553465  0.65983720     0.04500
C4457       C  0.65470774  0.70309573  0.66610720    -0.07800
C4458       C  0.67950639  0.71521217  0.68091057    -0.08500
C4459       C  0.69141997  0.70045853  0.68916564    -0.03100
C4460       C  0.67779971  0.67286886  0.68279550     0.03800
N4461       N  0.68901912  0.65690364  0.69093802     0.66300
H4462       H  0.64257674  0.63954745  0.66366365     0.15200
H4463       H  0.68986757  0.73644997  0.68520422     0.14900
N4464       N  0.64358938  0.71903349  0.65776213     0.74000
O4465       O  0.69398710  0.65513848  0.71813252    -0.39500
O4466       O  0.69235098  0.64318262  0.67122814    -0.39400
O4467       O  0.62580905  0.71933384  0.67409507    -0.40100
O4468       O  0.65334188  0.73472907  0.63572383    -0.40200
C4469       C  0.53198070  0.69316188  0.63334974    -0.12500
C4470       C  0.54274951  0.68178918  0.65204763     0.04500
C4471       C  0.54007585  0.68321812  0.68356288    -0.07800
C4472       C  0.52673777  0.69566682  0.69554263    -0.08500
C4473       C  0.51539519  0.70660199  0.67683111    -0.03100
C4474       C  0.51799036  0.70498519  0.64512555     0.03800
N4475       N  0.50597469  0.71434976  0.62423644     0.66300
H4476       H  0.53332076  0.69180045  0.60912855     0.15200
H4477       H  0.01913051  0.69000675  0.71686885     0.14900
N4478       N  0.55094319  0.67231604  0.70383474     0.74000
O4479       O  0.52012151  0.72960712  0.60316181    -0.39500
O4480       O  0.48072570  0.70204536  0.62191450    -0.39400
O4481       O  0.57541573  0.68569898  0.71090080    -0.40100
O4482       O  0.02389331  0.63734886  0.70290253    -0.40200
C4483       C  0.94897012  0.52301586  0.57946053    -0.12500
C4484       C  0.93673261  0.50981537  0.60628025     0.04500
C4485       C  0.94723121  0.52290748  0.63395088    -0.07800
C4486       C  0.97132553  0.54783978  0.63417223    -0.08500
C4487       C  0.98520418  0.55935138  0.60714656    -0.03100
C4488       C  0.97303348  0.54714898  0.57952949     0.03800
N4489       N  0.98594425  0.55774163  0.55118466     0.66300
H4490       H  0.94064904  0.51369370  0.55794661     0.15200
H4491       H  0.47901386  0.55642096  0.66751144     0.14900
N4492       N  0.93845574  0.01163619  0.66515102     0.74000
O4493       O  0.99497449  0.54562381  0.53603607    -0.39500
O4494       O  0.98365752  0.57582944  0.53884707    -0.39400
O4495       O  0.91788609  0.01058574  0.67652750    -0.40100
O4496       O  0.95098985  0.00302324  0.67980546    -0.40200
C4497       C  0.59611146  0.55564173  0.62369565    -0.12500
C4498       C  0.57166294  0.55515277  0.62511289     0.04500
C4499       C  0.54744067  0.53077545  0.62860983    -0.07800
C4500       C  0.54779222  0.50719392  0.62896084    -0.08500
C4501       C  0.57194160  0.50735398  0.62609522    -0.03100
C4502       C  0.59655942  0.53179786  0.62478426     0.03800
N4503       N  0.62173506  0.53260398  0.62291726     0.66300
H4504       H  0.61471114  0.57449789  0.62113603     0.15200
H4505       H  0.57928802  0.01282664  0.64760505     0.14900
N4506       N  0.52209510  0.52945379  0.62876589     0.74000
O4507       O  0.64074099  0.55010912  0.60714308    -0.39500
O4508       O  0.62618490  0.51809811  0.63994097    -0.39400
O4509       O  0.50633783  0.51890224  0.60687636    -0.40100
O4510       O  0.51354055  0.53418757  0.65281507    -0.40200
C4511       C  0.61597506  0.64399966  0.49312417    -0.12500
C4512       C  0.62324403  0.64157360  0.52238215     0.04500
C4513       C  0.64286985  0.63431590  0.52626012    -0.07800
C4514       C  0.65311125  0.62759934  0.50086831    -0.08500
C4515       C  0.64310012  0.62676781  0.47191947    -0.03100
C4516       C  0.62577611  0.63688849  0.46802500     0.03800
N4517       N  0.61608715  0.63777849  0.43881424     0.66300
H4518       H  0.60095495  0.64955127  0.48985527     0.15200
H4519       H  0.66635233  0.61988568  0.50423752     0.14900
N4520       N  0.65038463  0.63082723  0.55574752     0.74000
O4521       O  0.59127758  0.62431921  0.43332348    -0.39500
O4522       O  0.63217565  0.65310327  0.41894769    -0.39400
O4523       O  0.63272681  0.61494351  0.57404762    -0.40100
O4524       O  0.67488637  0.64095663  0.56215682    -0.40200
C4525       C  0.99401313  0.68789903  0.34002527    -0.12500
C4526       C  0.98504142  0.68803148  0.31072838     0.04500
C4527       C  0.96508208  0.66342521  0.29827237    -0.07800
C4528       C  0.95506270  0.63976928  0.31489818    -0.08500
C4529       C  0.96374451  0.63988357  0.34432060    -0.03100
C4530       C  0.98348438  0.66433117  0.35683928     0.03800
N4531       N  0.47951771  0.66948414  0.39398222     0.66300
H4532       H  0.49929363  0.70989962  0.35621781     0.15200
H4533       H  0.93985280  0.62118644  0.30493345     0.14900
N4534       N  0.95450609  0.66196148  0.26891573     0.74000
O4535       O  0.49286490  0.66065448  0.40644463    -0.39500
O4536       O  0.98217705  0.66576167  0.40916370    -0.39400
O4537       O  0.95824170  0.64920819  0.24831552    -0.40100
O4538       O  0.93796445  0.66963426  0.26494989    -0.40200
C4539       C  0.86080406  0.53032340  0.31614296    -0.12500
C4540       C  0.86242453  0.53935157  0.34581555     0.04500
C4541       C  0.83907526  0.53663396  0.35963338    -0.07800
C4542       C  0.81471649  0.52473877  0.34372152    -0.08500
C4543       C  0.81325030  0.51572611  0.31399229    -0.03100
C4544       C  0.83673692  0.51890058  0.30015175     0.03800
N4545       N  0.83622256  0.50922181  0.27041185     0.66300
H4546       H  0.87848227  0.53227141  0.30506931     0.15200
H4547       H  0.79643749  0.01204365  0.35708373     0.14900
N4548       N  0.83826230  0.03204518  0.39356908     0.74000
O4549       O  0.83810434  0.52331858  0.24808413    -0.39500
O4550       O  0.84005222  0.48998148  0.26675901    -0.39400
O4551       O  0.83003078  0.04599770  0.40617207    -0.40100
O4552       O  0.84422096  0.01795263  0.40934431    -0.40200
C4553       C  0.92647345  0.97210777  0.36239574    -0.12500
C4554       C  0.92811036  0.98446317  0.39028075     0.04500
C4555       C  0.92977243  0.97215576  0.41688233    -0.07800
C4556       C  0.93099462  0.94908402  0.41499398    -0.08500
C4557       C  0.93170904  0.93800187  0.38721398    -0.03100
C4558       C  0.92844607  0.94906978  0.36061866     0.03800
N4559       N  0.92896845  0.93841595  0.33172318     0.66300
H4560       H  0.94385701  0.48892917  0.34103136     0.15200
H4561       H  0.93296779  0.94058719  0.43574395     0.14900
N4562       N  0.93332344  0.98420416  0.44592746     0.74000
O4563       O  0.95026224  0.93978223  0.32228060    -0.39500
O4564       O  0.90940293  0.93085738  0.31411984    -0.39400
O4565       O  0.91462085  0.97368366  0.46517214    -0.40100
O4566       O  0.95667840  0.00133156  0.45437080    -0.40200
C4567       C  0.53402687  0.63757798  0.49344914    -0.12500
C4568       C  0.52503032  0.63790113  0.52260681     0.04500
C4569       C  0.49840964  0.63235243  0.52708398    -0.07800
C4570       C  0.98152791  0.62537653  0.50118411    -0.08500
C4571       C  0.98979881  0.62230659  0.47237462    -0.03100
C4572       C  0.51619738  0.62837005  0.46935105     0.03800
N4573       N  0.02776583  0.63227990  0.43749117     0.66300
H4574       H  0.55449087  0.64218416  0.48974713     0.15200
H4575       H  0.96032330  0.61685509  0.50606677     0.14900
N4576       N  0.48910540  0.63515390  0.55620068     0.74000
O4577       O  0.52794668  0.64244173  0.41982151    -0.39500
O4578       O  0.02671528  0.61092881  0.42991148    -0.39400
O4579       O  0.47576473  0.64669189  0.55862841    -0.40100
O4580       O  0.99085143  0.62060826  0.57481725    -0.40200
C4581       C  0.86844617  0.99736731  0.46555559    -0.12500
C4582       C  0.88063101  0.52345051  0.47786913     0.04500
C4583       C  0.88622489  0.52772253  0.50872226    -0.07800
C4584       C  0.87508322  0.50612652  0.52847276    -0.08500
C4585       C  0.86066402  0.98005813  0.51663363    -0.03100
C4586       C  0.85685126  0.97552739  0.48538512     0.03800
N4587       N  0.84418179  0.94905317  0.47347011     0.66300
H4588       H  0.86809802  0.99375847  0.44156831     0.15200
H4589       H  0.88206295  0.50952147  0.55152911     0.14900
N4590       N  0.90540559  0.55356554  0.51975032     0.74000
O4591       O  0.85627425  0.94284173  0.45429373    -0.39500
O4592       O  0.81980084  0.93280002  0.47945748    -0.39400
O4593       O  0.89760405  0.56891463  0.52923096    -0.40100
O4594       O  0.92948391  0.55976758  0.52344697    -0.40200
C4595       C  0.51545023  0.54830514  0.36248892    -0.12500
C4596       C  0.51580041  0.57238336  0.36486793     0.04500
C4597       C  0.54072654  0.59675288  0.36325288    -0.07800
C4598       C  0.56474385  0.59595918  0.36357788    -0.08500
C4599       C  0.56399360  0.57158113  0.36411192    -0.03100
C4600       C  0.53916455  0.54769524  0.36158483     0.03800
N4601       N  0.53787352  0.52262280  0.35879914     0.66300
H4602       H  0.99668085  0.52506927  0.37860043     0.15200
H4603       H  0.58399121  0.61427901  0.36500738     0.14900
N4604       N  0.54217554  0.62209597  0.36279796     0.74000
O4605       O  0.52026268  0.50251895  0.37304330    -0.39500
O4606       O  0.55171220  0.51969230  0.33874361    -0.39400
O4607       O  0.56329227  0.64288137  0.37118824    -0.40100
O4608       O  0.52417627  0.62450512  0.35000949    -0.40200
loop_ 
_geom_bond_atom_site_label_1 
_geom_bond_atom_site_label_2 
_geom_bond_distance 
_geom_bond_site_symmetry_2 
_ccdc_geom_bond_type 
O1           C16   1.261       .  A
O1           Al9   1.931       .  S
C2           O12   1.257       .  A
C2            O3   1.255       .  A
C2         C3444   1.469       .  S
O3           Al5   1.885       .  S
O4            C6   1.259       .  A
O4           Al5   1.876       .  S
Al5          O13   1.875       .  S
Al5          O15   1.913       .  S
Al5          O14   1.771       .  S
C6           O19   1.274       .  A
C6         C1115   1.482       .  S
O7           C17   1.263       .  A
O7           Al9   1.898       .  S
O8           C21   1.255       .  A
O8          Al18   1.879       .  S
Al9          O22   1.926       .  S
Al9          O19   1.963       .  S
Al9          O14   1.783       .  S
O10          C17   1.266       .  A
O10         Al18   1.923       .  S
O11          C20   1.272       .  A
O11         Al18   1.945       .  S
O12         Al18   1.915       .  S
O13          C20   1.263       .  A
O14         Al18   1.788       .  S
O15          C16   1.260       .  A
C16        C1126   1.485       .  S
C17        C1073   1.485       .  S
C20        C2250   1.484   1_545  S
C21          O22   1.264       .  A
C21        C1084   1.474       .  S
O23          C38   1.262       .  A
O23         Al31   1.933       .  S
C24          O34   1.261       .  A
C24          O25   1.255       .  A
C24        C3335   1.477   1_455  S
O25         Al27   1.885       .  S
O26          C28   1.259       .  A
O26         Al27   1.875       .  S
Al27         O35   1.875       .  S
Al27         O37   1.906       .  S
Al27         O36   1.762       .  S
C28          O41   1.270       .  A
C28        C1112   1.464       .  S
O29          C39   1.263       .  A
O29         Al31   1.886       .  S
O30          C43   1.260       .  A
O30         Al40   1.885       .  S
Al31         O44   1.902       .  S
Al31         O41   1.949       .  S
Al31         O36   1.777       .  S
O32          C39   1.265       .  A
O32         Al40   1.921       .  S
O33          C42   1.272       .  A
O33         Al40   1.947       .  S
O34         Al40   1.923       .  S
O35          C42   1.263       .  A
O36         Al40   1.780       .  S
O37          C38   1.257       .  A
C38        C1056   1.478       .  S
C39        C1014   1.488       .  S
C42        C1042   1.484       .  S
C43          O44   1.260       .  A
C43        C1000   1.475       .  S
O45          C60   1.262       .  A
O45         Al53   1.937       .  S
C46          O56   1.263       .  A
C46          O47   1.257       .  A
C46        C2197   1.476       .  S
O47         Al49   1.891       .  S
O48          C50   1.258       .  A
O48         Al49   1.867       .  S
Al49         O57   1.893       .  S
Al49         O59   1.905       .  S
Al49         O58   1.774       .  S
C50          O63   1.273       .  A
C50         C972   1.480       .  S
O51          C61   1.266       .  A
O51         Al53   1.914       .  S
O52          C65   1.261       .  A
O52         Al62   1.888       .  S
Al53         O66   1.929       .  S
Al53         O63   1.967       .  S
Al53         O58   1.779       .  S
O54          C61   1.264       .  A
O54         Al62   1.922       .  S
O55          C64   1.269       .  A
O55         Al62   1.934       .  S
O56         Al62   1.918       .  S
O57          C64   1.262       .  A
O58         Al62   1.778       .  S
O59          C60   1.256       .  A
C60         C986   1.484       .  S
C61         C944   1.500       .  S
C64        C3262   1.489   1_455  S
C65          O66   1.266       .  A
C65         C930   1.478       .  S
O67          C82   1.278       .  A
O67         Al75   1.987       .  S
C68          O78   1.273       .  A
C68          O69   1.258       .  A
C68        C2068   1.485   1_545  S
O69         Al71   1.871       .  S
O70          C72   1.260       .  A
O70         Al71   1.919       .  S
Al71         O79   1.914       .  S
Al71         O81   1.867       .  S
Al71         O80   1.766       .  S
C72          O85   1.260       .  A
C72         C975   1.476       .  S
O73          C83   1.269       .  A
O73         Al75   1.953       .  S
O74          C87   1.268       .  A
O74         Al84   1.926       .  S
Al75         O88   1.890       .  S
Al75         O85   1.922       .  S
Al75         O80   1.777       .  S
O76          C83   1.255       .  A
O76         Al84   1.872       .  S
O77          C86   1.258       .  A
O77         Al84   1.913       .  S
O78         Al84   1.950       .  S
O79          C86   1.260       .  A
O80         Al84   1.773       .  S
O81          C82   1.259       .  A
C82        C1059   1.483       .  S
C83         C905   1.486       .  S
C86        C1143   1.472       .  S
C87          O88   1.262       .  A
C87         C891   1.492       .  S
O89         C104   1.263       .  A
O89         Al97   1.928       .  S
C90         O100   1.259       .  A
C90          O91   1.260       .  A
C90        C1101   1.470       .  S
O91         Al93   1.903       .  S
O92          C94   1.257       .  A
O92         Al93   1.878       .  S
Al93        O101   1.862       .  S
Al93        O103   1.922       .  S
Al93        O102   1.770       .  S
C94         O107   1.273       .  A
C94         C874   1.487       .  S
O95         C105   1.266       .  A
O95         Al97   1.907       .  S
O96         C109   1.257       .  A
O96        Al106   1.881       .  S
Al97        O110   1.949       .  S
Al97        O107   1.975       .  S
Al97        O102   1.783       .  S
O98         C105   1.265       .  A
O98        Al106   1.917       .  S
O99         C108   1.266       .  A
O99        Al106   1.938       .  S
O100       Al106   1.907       .  S
O101        C108   1.259       .  A
O102       Al106   1.785       .  S
O103        C104   1.261       .  A
C104        C989   1.487       .  S
C105        C846   1.494       .  S
C108       C3223   1.481       .  S
C109        O110   1.269       .  A
C109        C860   1.492       .  S
O111        C126   1.277       .  A
O111       Al119   1.988       .  S
C112        O122   1.270       .  A
C112        O113   1.260       .  A
C112        C961   1.482       .  S
O113       Al115   1.866       .  S
O114        C116   1.259       .  A
O114       Al115   1.914       .  S
Al115       O123   1.900       .  S
Al115       O125   1.864       .  S
Al115       O124   1.770       .  S
C116        O129   1.262       .  A
C116        C877   1.489       .  S
O117        C127   1.270       .  A
O117       Al119   1.948       .  S
O118        C131   1.264       .  A
O118       Al128   1.911       .  S
Al119       O132   1.909       .  S
Al119       O129   1.940       .  S
Al119       O124   1.781       .  S
O120        C127   1.261       .  A
O120       Al128   1.884       .  S
O121        C130   1.258       .  A
O121       Al128   1.916       .  S
O122       Al128   1.950       .  S
O123        C130   1.260       .  A
O124       Al128   1.788       .  S
O125        C126   1.256       .  A
C126       C1129   1.488       .  S
C127        C818   1.493       .  S
C130       C2180   1.479       .  S
C131        O132   1.263       .  A
C131        C832   1.493       .  S
O133       C1300   1.273       .  A
O133       Al141   1.968   1_565  S
C134        O144   1.275       .  A
C134        O135   1.260       .  A
C134        C790   1.492       .  S
O135       Al137   1.873       .  S
O136        C138   1.260       .  A
O136       Al137   1.919       .  S
Al137       O145   1.913       .  S
Al137       O147   1.873       .  S
Al137       O146   1.771       .  S
C138        O151   1.258       .  A
C138        C804   1.473       .  S
O139        C149   1.263       .  A
O139       Al141   1.927       .  S
O140       C1305   1.271       .  A
O140       Al150   1.942       .  S
Al141       O154   1.879       .  S
Al141      O1303   1.918   1_545  S
Al141      O1298   1.779   1_545  S
O142       C1301   1.261       .  A
O142       Al150   1.893       .  S
O143        C152   1.261       .  A
O143       Al150   1.925       .  S
O144       Al150   1.963       .  S
O145        C152   1.260       .  A
O146       Al150   1.774       .  S
O146      Al1293   1.779       .  S
O147        C148   1.259       .  A
C148       O1285   1.276       .  A
C148        C776   1.482       .  S
C149       O1294   1.260   1_545  A
C149        C902   1.492       .  S
O151      Al1293   1.917       .  S
C152        C765   1.479       .  S
C153        O154   1.261       .  A
C153       O1292   1.273   1_545  A
C153       C1087   1.494       .  S
O155        C170   1.259       .  A
O155       Al163   1.928       .  S
C156        O166   1.264       .  A
C156        O157   1.256       .  A
C156        C748   1.479       .  S
O157       Al159   1.887       .  S
O158        C160   1.257       .  A
O158       Al159   1.865       .  S
Al159       O167   1.876       .  S
Al159       O169   1.900       .  S
Al159       O168   1.776       .  S
C160        O173   1.270       .  A
C160        C807   1.471       .  S
O161        C171   1.263       .  A
O161       Al163   1.907       .  S
O162        C175   1.263       .  A
O162       Al172   1.898       .  S
Al163       O176   1.910       .  S
Al163       O173   1.956       .  S
Al163       O168   1.786       .  S
O164        C171   1.265       .  A
O164       Al172   1.921       .  S
O165        C174   1.269       .  A
O165       Al172   1.949       .  S
O166       Al172   1.927       .  S
O167        C174   1.262       .  A
O168       Al172   1.789       .  S
O169        C170   1.254       .  A
C170        C734   1.478       .  S
C171        C706   1.494       .  S
C174        C723   1.491       .  S
C175        O176   1.263       .  A
C175        C692   1.475       .  S
O177        C192   1.260   1_655  A
O177      Al2489   1.925       .  S
C178        O188   1.263       .  A
C178        O179   1.255       .  A
C178        C664   1.478       .  S
O179       Al181   1.889       .  S
O180        C182   1.258       .  A
O180       Al181   1.865       .  S
Al181       O189   1.884       .  S
Al181       O191   1.903       .  S
Al181       O190   1.771       .  S
C182        O195   1.273       .  A
C182        C681   1.474       .  S
O183        C193   1.260       .  A
O183       Al185   1.889       .  S
O184       C2501   1.261       .  A
O184       Al194   1.891       .  S
Al185       O198   1.925       .  S
Al185      O2481   1.931       .  S
Al185      O2499   1.967       .  S
Al185      O2494   1.782       .  S
O186       C2497   1.267   1_455  A
O186       Al194   1.924       .  S
O187        C196   1.272       .  A
O187       Al194   1.947       .  S
O188       Al194   1.922       .  S
O189        C196   1.263       .  A
O190       Al194   1.777       .  S
O190      Al2489   1.782   1_455  S
O191        C192   1.256       .  A
C192        C737   1.476       .  S
C193       O2490   1.269       .  A
C193       C1070   1.495       .  S
O195      Al2489   1.967   1_455  S
C196        C793   1.488       .  S
C197        O198   1.264       .  A
C197       O2488   1.261       .  A
C197        C863   1.483       .  S
O199        C214   1.262       .  A
O199       Al207   1.936       .  S
C200        O210   1.264       .  A
C200        O201   1.254       .  A
C200        C720   1.480       .  S
O201       Al203   1.886       .  S
O202        C204   1.260       .  A
O202       Al203   1.873       .  S
Al203       O211   1.893       .  S
Al203       O213   1.903       .  S
Al203       O212   1.774       .  S
C204        O217   1.272       .  A
C204        C678   1.475       .  S
O205        C215   1.262       .  A
O205       Al207   1.896       .  S
O206        C219   1.261       .  A
O206       Al216   1.898       .  S
Al207       O220   1.918       .  S
Al207       O217   1.962       .  S
Al207       O212   1.781       .  S
O208        C215   1.265       .  A
O208       Al216   1.918       .  S
O209        C218   1.269       .  A
O209       Al216   1.933       .  S
O210       Al216   1.933       .  S
O211        C218   1.267       .  A
O212       Al216   1.781       .  S
O213        C214   1.254       .  A
C214        C650   1.477       .  S
C215        C608   1.493       .  S
C218        C639   1.488       .  S
C219        O220   1.263       .  A
C219        C622   1.481       .  S
O221        C236   1.261       .  A
O221       Al229   1.934       .  S
C222        O232   1.263       .  A
C222        O223   1.255       .  A
C222        C636   1.480       .  S
O223       Al225   1.886       .  S
O224        C226   1.257       .  A
O224       Al225   1.870       .  S
Al225       O233   1.880       .  S
Al225       O235   1.905       .  S
Al225       O234   1.774       .  S
C226        O239   1.270       .  A
C226        C594   1.472       .  S
O227        C237   1.264       .  A
O227       Al229   1.905       .  S
O228        C241   1.261       .  A
O228       Al238   1.897       .  S
Al229       O242   1.911       .  S
Al229       O239   1.958       .  S
Al229       O234   1.784       .  S
O230        C237   1.266       .  A
O230       Al238   1.924       .  S
O231        C240   1.269       .  A
O231       Al238   1.942       .  S
O232       Al238   1.928       .  S
O233        C240   1.263       .  A
O234       Al238   1.788       .  S
O235        C236   1.255       .  A
C236        C779   1.481       .  S
C237        C580   1.496       .  S
C240        C751   1.489       .  S
C241        O242   1.263       .  A
C241        C569   1.485       .  S
O243        C258   1.259       .  A
O243       Al251   1.928       .  S
C244        O254   1.259       .  A
C244        O245   1.256       .  A
C244        C762   1.477       .  S
O245       Al247   1.897       .  S
O246        C248   1.261       .  A
O246       Al247   1.866       .  S
Al247       O255   1.884       .  S
Al247       O257   1.917       .  S
Al247       O256   1.775       .  S
C248        O261   1.272       .  A
C248        C597   1.477       .  S
O249        C259   1.263       .  A
O249       Al251   1.902       .  S
O250        C263   1.258       .  A
O250       Al260   1.889       .  S
Al251       O264   1.914       .  S
Al251       O261   1.963       .  S
Al251       O256   1.783       .  S
O252        C259   1.265       .  A
O252       Al260   1.917       .  S
O253        C262   1.271       .  A
O253       Al260   1.942       .  S
O254       Al260   1.923       .  S
O255        C262   1.266       .  A
O256       Al260   1.783       .  S
O257        C258   1.256       .  A
C258        C653   1.481       .  S
C259        C849   1.486       .  S
C262        C667   1.488       .  S
C263        O264   1.262       .  A
C263        C888   1.471       .  S
O265        C280   1.265       .  A
O265       Al273   1.934       .  S
C266        O276   1.261       .  A
C266        O267   1.259       .  A
C266        C541   1.468       .  S
O267       Al269   1.897       .  S
O268        C270   1.256       .  A
O268       Al269   1.879       .  S
Al269       O277   1.885       .  S
Al269       O279   1.910       .  S
Al269       O278   1.775       .  S
C270        O283   1.268       .  A
C270        C552   1.484       .  S
O271        C281   1.267       .  A
O271       Al273   1.925       .  S
O272        C285   1.259       .  A
O272       Al282   1.886       .  S
Al273       O286   1.940       .  S
Al273       O283   1.958       .  S
Al273       O278   1.789       .  S
O274        C281   1.260       .  A
O274       Al282   1.896       .  S
O275        C284   1.259       .  A
O275       Al282   1.909       .  S
O276       Al282   1.911       .  S
O277        C284   1.258       .  A
O278       Al282   1.793       .  S
O279        C280   1.260       .  A
C280        C524   1.486       .  S
C281        C611   1.488       .  S
C284        C513   1.457       .  S
C285        O286   1.268       .  A
C285        C566   1.478       .  S
O287       C2606   1.259   1_455  A
O287       Al295   1.926       .  S
C288        O298   1.262       .  A
C288        O289   1.263       .  A
C288        C471   1.472       .  S
O289       Al291   1.895       .  S
O290        C292   1.257       .  A
O290       Al291   1.870       .  S
Al291       O299   1.898       .  S
Al291       O301   1.894       .  S
Al291       O300   1.771       .  S
C292       O2609   1.273       .  A
C292        C555   1.485       .  S
O293        C303   1.257       .  A
O293       Al295   1.905       .  S
O294       C2611   1.262       .  A
O294       Al304   1.876       .  S
Al295       O308   1.953       .  S
Al295       O305   1.960   1_455  S
Al295      O2604   1.786   1_455  S
O296       C2607   1.256       .  A
O296       Al304   1.897       .  S
O297        C306   1.263       .  A
O297       Al304   1.927       .  S
O298       Al304   1.912       .  S
O299        C306   1.259       .  A
O300       Al304   1.790       .  S
O300      Al2599   1.784       .  S
O301        C302   1.256       .  A
C302       O2591   1.260       .  A
C302        C496   1.480       .  S
C303       O2600   1.254   1_455  A
C303       C1017   1.478       .  S
O305       C2596   1.273       .  A
C306        C485   1.469       .  S
C307        O308   1.275       .  A
C307       O2598   1.261   1_455  A
C307        C933   1.487       .  S
O309        C324   1.258       .  A
O309       Al317   1.928       .  S
C310        O320   1.263       .  A
C310        O311   1.262       .  A
C310        C440   1.472       .  S
O311       Al313   1.899       .  S
O312        C314   1.257       .  A
O312       Al313   1.874       .  S
Al313       O321   1.883       .  S
Al313       O323   1.886       .  S
Al313       O322   1.774       .  S
C314        O327   1.270       .  A
C314        C454   1.473       .  S
O315        C325   1.260       .  A
O315       Al317   1.919       .  S
O316        C329   1.265       .  A
O316       Al326   1.883       .  S
Al317       O330   1.931       .  S
Al317       O327   1.946       .  S
Al317       O322   1.787       .  S
O318        C325   1.256       .  A
O318       Al326   1.897       .  S
O319        C328   1.263       .  A
O319       Al326   1.938       .  S
O320       Al326   1.917       .  S
O321        C328   1.258       .  A
O322       Al326   1.795       .  S
O323        C324   1.253       .  A
C324        C499   1.480       .  S
C325        C583   1.492       .  S
C328        C538   1.483       .  S
C329        O330   1.271       .  A
C329        C695   1.472       .  S
O331        C346   1.260       .  A
O331       Al339   1.930       .  S
C332        O342   1.260       .  A
C332        O333   1.258       .  A
C332        C510   1.466       .  S
O333       Al335   1.892       .  S
O334        C336   1.259       .  A
O334       Al335   1.873       .  S
Al335       O343   1.889       .  S
Al335       O345   1.900       .  S
Al335       O344   1.771       .  S
C336        O349   1.278       .  A
C336        C426   1.490       .  S
O337        C347   1.265       .  A
O337       Al339   1.910       .  S
O338        C351   1.257       .  A
O338       Al348   1.868       .  S
Al339       O352   1.947       .  S
Al339       O349   1.982       .  S
Al339       O344   1.779       .  S
O340        C347   1.264       .  A
O340       Al348   1.920       .  S
O341        C350   1.270       .  A
O341       Al348   1.939       .  S
O342       Al348   1.913       .  S
O343        C350   1.261       .  A
O344       Al348   1.780       .  S
O345        C346   1.255       .  A
C346        C412   1.475       .  S
C347        C709   1.496       .  S
C350        C443   1.485       .  S
C351        O352   1.269       .  A
C351        C625   1.486       .  S
O353       C1520   1.276       .  A
O353       Al361   1.975       .  S
C354        O364   1.256       .  A
C354        O355   1.254       .  A
C354        C398   1.462       .  S
O355       Al357   1.881       .  S
O356        C358   1.258       .  A
O356       Al357   1.887       .  S
Al357       O365   1.860       .  S
Al357       O367   1.912       .  S
Al357       O366   1.768       .  S
C358       O1523   1.272       .  A
C358        C429   1.480       .  S
O359        C369   1.264       .  A
O359       Al361   1.942       .  S
O360       C1525   1.258   1_545  A
O360       Al370   1.887       .  S
Al361       O374   1.898       .  S
Al361       O371   1.943       .  S
Al361      O1518   1.782       .  S
O362       C1521   1.267   1_545  A
O362       Al370   1.915       .  S
O363        C372   1.269       .  A
O363       Al370   1.940       .  S
O364       Al370   1.907       .  S
O365        C372   1.257       .  A
O366       Al370   1.786       .  S
O366      Al1513   1.781   1_545  S
O367        C368   1.260       .  A
C368       O1505   1.267       .  A
C368        C527   1.486       .  S
C369       O1514   1.255       .  A
C369        C947   1.487       .  S
O371       C1510   1.266       .  A
C372        C468   1.484       .  S
C373        O374   1.266       .  A
C373       O1512   1.270       .  A
C373        C835   1.493       .  S
O375        C390   1.259       .  A
O375       Al383   1.922       .  S
C376        O386   1.263       .  A
C376        O377   1.264       .  A
C376        C482   1.466       .  S
O377       Al379   1.909       .  S
O378        C380   1.258       .  A
O378       Al379   1.863       .  S
Al379       O387   1.894       .  S
Al379       O389   1.902       .  S
Al379       O388   1.770       .  S
C380        O393   1.269       .  A
C380        C457   1.485       .  S
O381        C391   1.261       .  A
O381       Al383   1.913       .  S
O382        C395   1.259       .  A
O382       Al392   1.864       .  S
Al383       O396   1.935       .  S
Al383       O393   1.952       .  S
Al383       O388   1.787       .  S
O384        C391   1.260       .  A
O384       Al392   1.913       .  S
O385        C394   1.263       .  A
O385       Al392   1.930       .  S
O386       Al392   1.905       .  S
O387        C394   1.259       .  A
O388       Al392   1.786       .  S
O389        C390   1.257       .  A
C390        C415   1.479       .  S
C391        C821   1.490       .  S
C394        C401   1.482       .  S
C395        O396   1.269       .  A
C395       C1003   1.464       .  S
C397        C398   1.397       .  A
C397        C402   1.394       .  A
C397        H404   1.085       .  S
C398        C399   1.406       .  A
C399        C400   1.404       .  A
C399        N406   1.429       .  S
C400        C401   1.410       .  A
C400        H405   1.084       .  S
C401        C402   1.411       .  A
C402        N403   1.426       .  S
N403        O407   1.261       .  A
N403        O408   1.262       .  A
N406        O410   1.262       .  A
N406        O409   1.262       .  A
C411        C412   1.404       .  A
C411        C416   1.411       .  A
C411        H418   1.084       .  S
C412        C413   1.410       .  A
C413        C414   1.403       .  A
C413        N420   1.433       .  S
C414        C415   1.401       .  A
C414        H419   1.080       .  S
C415        C416   1.413       .  A
C416        N417   1.440       .  S
N417        O421   1.262       .  A
N417        O422   1.263       .  A
N420        O424   1.261       .  A
N420        O423   1.262       .  A
C425        C426   1.404       .  A
C425        C430   1.412       .  A
C425        H432   1.080       .  S
C426        C427   1.416       .  A
C427        C428   1.402       .  A
C427        N434   1.431       .  S
C428        C429   1.401       .  A
C428       H1585   1.084       .  S
C429        C430   1.415       .  A
C430        N431   1.438       .  S
N431        O435   1.263       .  A
N431        O436   1.263       .  A
H433       C1580   1.084       .  S
N434       O1590   1.262       .  A
N434       O1589   1.262       .  A
O437       N1586   1.262       .  A
O438       N1586   1.262       .  A
C439        C440   1.401       .  A
C439        C444   1.393       .  A
C439        H446   1.085       .  S
C440        C441   1.404       .  A
C441        C442   1.405       .  A
C441        N448   1.428   1_556  S
C442        C443   1.411       .  A
C442        H447   1.084       .  S
C443        C444   1.417       .  A
C444        N445   1.432       .  S
N445        O449   1.262       .  A
N445        O450   1.262       .  A
N448        O452   1.261       .  A
N448        O451   1.262       .  A
C453        C454   1.404       .  A
C453        C458   1.413       .  A
C453        H460   1.083       .  S
C454        C455   1.405       .  A
C455        C456   1.396       .  A
C455        N462   1.429       .  S
C456        C457   1.404       .  A
C456        H461   1.085       .  S
C457        C458   1.416       .  A
C458        N459   1.436       .  S
N459        O463   1.262       .  A
N459        O464   1.262       .  A
N462        O466   1.262       .  A
N462        O465   1.262       .  A
C467        C468   1.409       .  A
C467        C472   1.409       .  A
C467        H474   1.083       .  S
C468        C469   1.417       .  A
C469        C470   1.386       .  A
C469        N476   1.431       .  S
C470        C471   1.399       .  A
C470        H475   1.085       .  S
C471        C472   1.411       .  A
C472        N473   1.436       .  S
N473        O477   1.262       .  A
N473        O478   1.262       .  A
N476        O480   1.262       .  A
N476        O479   1.261       .  A
C481        C482   1.399       .  A
C481        C486   1.392       .  A
C481        H488   1.085       .  S
C482        C483   1.412       .  A
C483        C484   1.409       .  A
C483        N490   1.436       .  S
C484        C485   1.404       .  A
C484        H489   1.083       .  S
C485        C486   1.408       .  A
C486        N487   1.431       .  S
N487        O491   1.261       .  A
N487        O492   1.262       .  A
N490        O494   1.262       .  A
N490        O493   1.262       .  A
C495        C496   1.403       .  A
C495        C500   1.411       .  A
C495       H2806   1.081       .  S
C496        C497   1.407       .  A
C497        C498   1.402       .  A
C497        N504   1.429       .  S
C498        C499   1.401       .  A
C498        H503   1.081       .  S
C499        C500   1.414       .  A
C500       N2805   1.438       .  S
N501       C2804   1.444       .  S
N501        O505   1.263       .  A
N501        O506   1.263       .  A
H502       C2799   1.080   1_455  S
N504        O508   1.261       .  A
N504        O507   1.261       .  A
C509        C510   1.404       .  A
C509        C514   1.411       .  A
C509        H516   1.083       .  S
C510        C511   1.409       .  A
C511        C512   1.385       .  A
C511        N518   1.430       .  S
C512        C513   1.394       .  A
C512        H517   1.086       .  S
C513        C514   1.413       .  A
C514        N515   1.439       .  S
N515        O519   1.262       .  A
N515        O520   1.263       .  A
N518        O522   1.262       .  A
N518        O521   1.261       .  A
C523        C524   1.406       .  A
C523        C528   1.415       .  A
C523        H530   1.084       .  S
C524        C525   1.414       .  A
C525        C526   1.405       .  A
C525        N532   1.438       .  S
C526        C527   1.402       .  A
C526       H1683   1.084       .  S
C527        C528   1.416       .  A
C528        N529   1.434       .  S
N529        O533   1.262       .  A
N529        O534   1.262       .  A
H531       C1678   1.084       .  S
N532       O1688   1.263       .  A
N532        O535   1.263       .  A
O536       N1684   1.262       .  A
C537        C538   1.403       .  A
C537        C542   1.394       .  A
C537        H544   1.084       .  S
C538        C539   1.416       .  A
C539        C540   1.406       .  A
C539        N546   1.431   1_556  S
C540        C541   1.401       .  A
C540        H545   1.084       .  S
C541        C542   1.404       .  A
C542        N543   1.426       .  S
N543        O547   1.262       .  A
N543        O548   1.261       .  A
N546        O550   1.262       .  A
N546        O549   1.262       .  A
C551        C552   1.405       .  A
C551        C556   1.409       .  A
C551        H558   1.081       .  S
C552        C553   1.408       .  A
C553        C554   1.407       .  A
C553        N560   1.435       .  S
C554        C555   1.408       .  A
C554        H559   1.084       .  S
C555        C556   1.411       .  A
C556       N2861   1.433       .  S
N557       C2860   1.429       .  S
N557        O561   1.261       .  A
N557        O562   1.262   1_655  A
N560        O564   1.262       .  A
N560        O563   1.262       .  A
C565        C570   1.404       .  A
C565       C1718   1.401       .  A
C565        H572   1.084       .  S
C566        C567   1.410   1_556  A
C566       C1717   1.402   1_545  A
C567        C568   1.403   1_545  A
C567        N574   1.430       .  S
C568       C1721   1.404       .  A
C568        H573   1.084       .  S
C569        C570   1.415   1_554  A
C569       C1720   1.407       .  A
C570        N571   1.429       .  S
N571        O575   1.262       .  A
N571        O576   1.262       .  A
N574        O578   1.262       .  A
N574        O577   1.262       .  A
C579        C580   1.410   1_556  A
C579        C584   1.408       .  A
C579        H586   1.084       .  S
C580        C581   1.414       .  A
C581        C582   1.402       .  A
C581        N588   1.429       .  S
C582        C583   1.407   1_554  A
C582        H587   1.084       .  S
C583        C584   1.412       .  A
C584        N585   1.429       .  S
N585        O589   1.262       .  A
N585        O590   1.262       .  A
N588        O592   1.262       .  A
N588        O591   1.261       .  A
C593        C594   1.406       .  A
C593        C598   1.407       .  A
C593        H600   1.083       .  S
C594        C595   1.406       .  A
C595        C596   1.397       .  A
C595        N602   1.427       .  S
C596        C597   1.403       .  A
C596        H601   1.085       .  S
C597        C598   1.407       .  A
C598        N599   1.430       .  S
N599        O603   1.261       .  A
N599        O604   1.262       .  A
N602        O606   1.262       .  A
N602        O605   1.262       .  A
C607        C608   1.410   1_556  A
C607        C612   1.404       .  A
C607        H614   1.083       .  S
C608        C609   1.415       .  A
C609       C2914   1.400   1_455  A
C609       N2920   1.430       .  S
C610        C611   1.407   1_554  A
C610       C2913   1.401       .  A
C610        H615   1.083       .  S
C611       C2916   1.410       .  A
C612       C2915   1.409   1_455  A
C612        N613   1.428       .  S
N613        O617   1.261       .  A
N613       O2922   1.262       .  A
N616       C2913   1.432       .  S
N616        O620   1.262       .  A
N616       O2923   1.262       .  A
O618       N2917   1.262       .  A
O619       N2920   1.262   1_655  A
C621        C622   1.400       .  A
C621        C626   1.400   1_554  A
C621        H628   1.084       .  S
C622        C623   1.413       .  A
C623        C624   1.406   1_554  A
C623        N630   1.430       .  S
C624        C625   1.404       .  A
C624        H629   1.084       .  S
C625        C626   1.418       .  A
C626        N627   1.433       .  S
N627        O631   1.262       .  A
N627        O632   1.262   1_556  A
N630        O634   1.262       .  A
N630        O633   1.262   1_554  A
C635        C636   1.402       .  A
C635        C640   1.407       .  A
C635        H642   1.084       .  S
C636        C637   1.413       .  A
C637        C638   1.393       .  A
C637        N644   1.429       .  S
C638        C639   1.402       .  A
C638        H643   1.084       .  S
C639        C640   1.419       .  A
C640        N641   1.429       .  S
N641        O645   1.262   1_554  A
N641        O646   1.262   1_554  A
N644        O648   1.259       .  A
N644        O647   1.262       .  A
C649        C650   1.403       .  A
C649        C654   1.408       .  A
C649        H656   1.084       .  S
C650        C651   1.410       .  A
C651        C652   1.405       .  A
C651        N658   1.430       .  S
C652        C653   1.404       .  A
C652        H657   1.084       .  S
C653        C654   1.413       .  A
C654        N655   1.434       .  S
N655        O659   1.262       .  A
N655        O660   1.263       .  A
N658        O662   1.262       .  A
N658        O661   1.262       .  A
C663        C664   1.403       .  A
C663        C668   1.406       .  A
C663        H670   1.084       .  S
C664        C665   1.415       .  A
C665        C666   1.393       .  A
C665        N672   1.432       .  S
C666        C667   1.404       .  A
C666        H671   1.084       .  S
C667        C668   1.417       .  A
C668        N669   1.429       .  S
N669        O673   1.262       .  A
N669        O674   1.262       .  A
N672        O676   1.261       .  A
N672        O675   1.262       .  A
C677        C678   1.401       .  A
C677        C682   1.403       .  A
C677        H684   1.084       .  S
C678        C679   1.418       .  A
C679        C680   1.407       .  A
C679        N686   1.439       .  S
C680        C681   1.400       .  A
C680        H685   1.084       .  S
C681        C682   1.413       .  A
C682        N683   1.433       .  S
N683        O687   1.261       .  A
N683        O688   1.262       .  A
N686        O690   1.262       .  A
N686        O689   1.262   1_455  A
C691        C692   1.402       .  A
C691       C3000   1.399   1_455  A
C691        H698   1.083       .  S
C692        C693   1.411   1_554  A
C693        C694   1.406       .  A
C693        N700   1.434       .  S
C694       C2999   1.405   1_455  A
C694        H699   1.084       .  S
C695        C696   1.408   1_556  A
C695       C2998   1.403       .  A
C696       C2995   1.398       .  A
C696        N697   1.429       .  S
N697        O701   1.262       .  A
N697        O702   1.261       .  A
N700        O704   1.262       .  A
N700        O703   1.262       .  A
C705        C706   1.408   1_556  A
C705       C1862   1.405       .  A
C705        H712   1.083       .  S
C706        C707   1.414       .  A
C707       C1860   1.405       .  A
C707        N714   1.431       .  S
C708        C709   1.410   1_554  A
C708       C1859   1.408       .  A
C708        H713   1.084       .  S
C709        C710   1.414       .  A
C710       C1857   1.405   1_545  A
C710        N711   1.433   1_545  S
N711       O1867   1.262   1_565  A
N711        O716   1.262       .  A
N714        O718   1.262       .  A
N714        O717   1.262       .  A
O715       N1863   1.262       .  A
C719        C720   1.404       .  A
C719        C724   1.411       .  A
C719        H726   1.084       .  S
C720        C721   1.414       .  A
C721        C722   1.391       .  A
C721        N728   1.431       .  S
C722        C723   1.404       .  A
C722        H727   1.084       .  S
C723        C724   1.417       .  A
C724        N725   1.428       .  S
N725        O729   1.262   1_554  A
N725        O730   1.262   1_554  A
N728        O732   1.261       .  A
N728        O731   1.262       .  A
C733        C734   1.403       .  A
C733        C738   1.408       .  A
C733        H740   1.084       .  S
C734        C735   1.414       .  A
C735        C736   1.404       .  A
C735        N742   1.435       .  S
C736        C737   1.401       .  A
C736       H3045   1.084       .  S
C737        C738   1.413       .  A
C738        N739   1.435       .  S
N739        O743   1.262       .  A
N739        O744   1.262       .  A
H741       C3040   1.084       .  S
N742       O3050   1.260       .  A
N742        O745   1.262       .  A
O746       N3046   1.261       .  A
C747        C748   1.403       .  A
C747        C752   1.409       .  A
C747        H754   1.084       .  S
C748        C749   1.412       .  A
C749        C750   1.391       .  A
C749        N756   1.430       .  S
C750        C751   1.404       .  A
C750        H755   1.084       .  S
C751        C752   1.418       .  A
C752        N753   1.429       .  S
N753        O757   1.262   1_554  A
N753        O758   1.262   1_554  A
N756        O760   1.260       .  A
N756        O759   1.262       .  A
C761        C762   1.400       .  A
C761        C766   1.395       .  A
C761        H768   1.085       .  S
C762        C763   1.415       .  A
C763        C764   1.415       .  A
C763        N770   1.435       .  S
C764        C765   1.406       .  A
C764        H769   1.084       .  S
C765        C766   1.410       .  A
C766        N767   1.432       .  S
N767        O771   1.263       .  A
N767        O772   1.261       .  A
N770        O774   1.262       .  A
N770        O773   1.262       .  A
C775        C776   1.404       .  A
C775        C780   1.411       .  A
C775        H782   1.084       .  S
C776        C777   1.407       .  A
C777        C778   1.406       .  A
C777        N784   1.429       .  S
C778        C779   1.405       .  A
C778        H783   1.084       .  S
C779        C780   1.416       .  A
C780        N781   1.442       .  S
N781        O785   1.263       .  A
N781        O786   1.263       .  A
N784        O788   1.262       .  A
N784        O787   1.262       .  A
C789        C790   1.407       .  A
C789        C794   1.393       .  A
C789        H796   1.084       .  S
C790        C791   1.415       .  A
C791        C792   1.411       .  A
C791        N798   1.434       .  S
C792        C793   1.408       .  A
C792        H797   1.083       .  S
C793        C794   1.413       .  A
C794        N795   1.431       .  S
N795        O799   1.261       .  A
N795        O800   1.262       .  A
N798        O802   1.262       .  A
N798        O801   1.262       .  A
C803        C804   1.404       .  A
C803        C808   1.405       .  A
C803        H810   1.084       .  S
C804        C805   1.409       .  A
C805        C806   1.406       .  A
C805       N1964   1.440       .  S
C806        C807   1.404       .  A
C806        H811   1.084       .  S
C807        C808   1.411       .  A
C808        N809   1.436       .  S
N809        O813   1.262       .  A
N809        O814   1.262       .  A
N812       C1957   1.440   1_545  S
N812        O816   1.263       .  A
N812        O815   1.263       .  A
C817        C818   1.410       .  A
C817        C822   1.405       .  A
C817        H824   1.084       .  S
C818        C819   1.413       .  A
C819        C820   1.407       .  A
C819        N826   1.431       .  S
C820        C821   1.408       .  A
C820        H825   1.084       .  S
C821        C822   1.411       .  A
C822        N823   1.431       .  S
N823        O827   1.262       .  A
N823        O828   1.262       .  A
N826        O830   1.262       .  A
N826        O829   1.262       .  A
C831        C832   1.407       .  A
C831        C836   1.402       .  A
C831        H838   1.084       .  S
C832        C833   1.414       .  A
C833        C834   1.405       .  A
C833        N840   1.429       .  S
C834        C835   1.407       .  A
C834       H1991   1.082       .  S
C835        C836   1.414       .  A
C836        N837   1.430       .  S
N837        O841   1.262       .  A
N837        O842   1.262       .  A
H839       C1986   1.084   1_545  S
N840       O1996   1.262       .  A
N840       O1995   1.262       .  A
O843       N1992   1.262       .  A
O844       N1992   1.262       .  A
C845        C846   1.406       .  A
C845        C850   1.402       .  A
C845        H852   1.084       .  S
C846        C847   1.419       .  A
C847        C848   1.403       .  A
C847        N854   1.430       .  S
C848        C849   1.403       .  A
C848        H853   1.084       .  S
C849        C850   1.412       .  A
C850        N851   1.428       .  S
N851        O855   1.261       .  A
N851        O856   1.262       .  A
N854        O858   1.262       .  A
N854        O857   1.262       .  A
C859        C860   1.407       .  A
C859        C864   1.409       .  A
C859        H866   1.084       .  S
C860        C861   1.418       .  A
C861        C862   1.399       .  A
C861       N3172   1.430       .  S
C862        C863   1.399       .  A
C862       H3171   1.084       .  S
C863        C864   1.414       .  A
C864        N865   1.433       .  S
N865        O869   1.263       .  A
N865        O870   1.262       .  A
H867       C3166   1.084       .  S
N868       C3165   1.431   1_455  S
N868        O872   1.261       .  A
N868        O871   1.262       .  A
C873        C874   1.404       .  A
C873        C878   1.413       .  A
C873        H880   1.083       .  S
C874        C875   1.419       .  A
C875        C876   1.410       .  A
C875        N882   1.445       .  S
C876        C877   1.400       .  A
C876        H881   1.079       .  S
C877        C878   1.415       .  A
C878        N879   1.437       .  S
N879        O883   1.262       .  A
N879        O884   1.262       .  A
N882        O886   1.263       .  A
N882        O885   1.263       .  A
C887        C888   1.399       .  A
C887        C892   1.400       .  A
C887        H894   1.082       .  S
C888        C889   1.405       .  A
C889        C890   1.403       .  A
C889        N896   1.429       .  S
C890        C891   1.410       .  A
C890        H895   1.083       .  S
C891        C892   1.418       .  A
C892        N893   1.430       .  S
N893        O897   1.262       .  A
N893        O898   1.261       .  A
N896        O900   1.262       .  A
N896        O899   1.262       .  A
C901        C902   1.404       .  A
C901        C906   1.399       .  A
C901       H2060   1.084   1_545  S
C902        C903   1.417       .  A
C903        C904   1.409       .  A
C903        N910   1.428       .  S
C904        C905   1.404       .  A
C904        H909   1.084       .  S
C905        C906   1.414       .  A
C906        N907   1.430   1_545  S
N907       O2063   1.262       .  A
N907        O912   1.261       .  A
H908       C2053   1.084       .  S
N910        O914   1.262       .  A
N910        O913   1.262       .  A
O911       N2059   1.262       .  A
C915        C916   1.405       .  A
C915        C920   1.403       .  A
C915        H922   1.084       .  S
C916       C1220   1.484       .  S
C916        C917   1.417       .  A
C917        C918   1.392       .  A
C917       N2076   1.433       .  S
C918        C919   1.406       .  A
C918        H923   1.084       .  S
C919       C2412   1.486   1_455  S
C919        C920   1.416       .  A
C920        N921   1.431       .  S
N921        O925   1.262       .  A
N921        O926   1.262       .  A
N924       C2069   1.433       .  S
N924        O928   1.261       .  A
N924        O927   1.262       .  A
C929        C930   1.400       .  A
C929        C934   1.399       .  A
C929        H936   1.084       .  S
C930        C931   1.412       .  A
C931        C932   1.407       .  A
C931        N938   1.433       .  S
C932        C933   1.406       .  A
C932       H3241   1.084       .  S
C933        C934   1.419       .  A
C934        N935   1.433   1_455  S
N935        O939   1.262       .  A
N935        O940   1.262       .  A
H937       C3236   1.084       .  S
N938       O3246   1.262       .  A
N938       O3245   1.262       .  A
O941       N3242   1.262       .  A
O942       N3242   1.262       .  A
C943        C944   1.405       .  A
C943        C948   1.403       .  A
C943        H950   1.084       .  S
C944        C945   1.422       .  A
C945        C946   1.410       .  A
C945        N952   1.429       .  S
C946        C947   1.401       .  A
C946        H951   1.084       .  S
C947        C948   1.411       .  A
C948       N2101   1.429       .  S
N949       C2100   1.434       .  S
N949        O953   1.263       .  A
N949        O954   1.262   1_565  A
N952        O956   1.262       .  A
N952        O955   1.262       .  A
C957        C958   1.408       .  A
C957        C962   1.404       .  A
C957       H3268   1.084       .  S
C958       C2368   1.482       .  S
C958        C959   1.413       .  A
C959        C960   1.393       .  A
C959        N966   1.431       .  S
C960        C961   1.403       .  A
C960        H965   1.082       .  S
C961        C962   1.412       .  A
C962        N963   1.430       .  S
N963        O967   1.262       .  A
N963        O968   1.262       .  A
H964       C3261   1.083       .  S
N966        O970   1.263       .  A
N966        O969   1.262       .  A
C971        C972   1.407       .  A
C971       C2128   1.403       .  A
C971        H978   1.084       .  S
C972        C973   1.413       .  A
C973       C2126   1.410       .  A
C973        N980   1.438       .  S
C974        C975   1.405       .  A
C974       C2125   1.411   1_545  A
C974        H979   1.081       .  S
C975        C976   1.405       .  A
C976       C2123   1.401       .  A
C976        N977   1.431       .  S
N977        O981   1.262       .  A
N977        O982   1.262       .  A
N980        O984   1.262       .  A
N980        O983   1.263       .  A
C985        C986   1.402       .  A
C985       C3294   1.410       .  A
C985        H992   1.084       .  S
C986        C987   1.413       .  A
C987       C3292   1.411   1_455  A
C987        N994   1.435   1_455  S
C988        C989   1.403       .  A
C988       C3291   1.413       .  A
C988        H993   1.084       .  S
C989        C990   1.418       .  A
C990       C3289   1.410       .  A
C990        N991   1.444       .  S
N991       O3299   1.263       .  A
N991        O996   1.262       .  A
N994        O998   1.262   1_655  A
N994        O997   1.262       .  A
O995       N3295   1.263       .  A
C999       C1000   1.402       .  A
C999       C1004   1.393       .  A
C999       H1006   1.084       .  S
C1000      C1001   1.416       .  A
C1001      C1002   1.399       .  A
C1001      N1008   1.429       .  S
C1002      C1003   1.398       .  A
C1002      H1007   1.084       .  S
C1003      C1004   1.408       .  A
C1004      N1005   1.429       .  S
N1005      O1009   1.260       .  A
N1005      O1010   1.262       .  A
N1008      O1012   1.262       .  A
N1008      O1011   1.262       .  A
C1013      C1014   1.406       .  A
C1013      C1018   1.398       .  A
C1013      H1020   1.084       .  S
C1014      C1015   1.417       .  A
C1015      C1016   1.404       .  A
C1015      N1022   1.430       .  S
C1016      C1017   1.403       .  A
C1016      H3325   1.084       .  S
C1017      C1018   1.412       .  A
C1018      N1019   1.434       .  S
N1019      O1023   1.263       .  A
N1019      O1024   1.262       .  A
H1021      C3320   1.084       .  S
N1022      O3330   1.262       .  A
N1022      O1025   1.262       .  A
O1026      N3326   1.262       .  A
C1027      C1028   1.406       .  A
C1027      C1032   1.412       .  A
C1027      H1034   1.084       .  S
C1028      C1282   1.473   1_545  S
C1028      C1029   1.409       .  A
C1029      C1030   1.393       .  A
C1029      N2188   1.434   1_545  S
C1030      C1031   1.402       .  A
C1030      H3339   1.085       .  S
C1031      C2328   1.472       .  S
C1031      C1032   1.414       .  A
C1032      N1033   1.439       .  S
N1033      O1037   1.263       .  A
N1033      O1038   1.262       .  A
H1035      C3334   1.084       .  S
N1036      C2181   1.431       .  S
N1036      O1040   1.262       .  A
N1036      O1039   1.262       .  A
C1041      C1042   1.403       .  A
C1041      C1046   1.388       .  A
C1041      H1048   1.084       .  S
C1042      C1043   1.415       .  A
C1043      C1044   1.409       .  A
C1043      N1050   1.430       .  S
C1044      C1045   1.404       .  A
C1044      H2201   1.084       .  S
C1045      C1198   1.478   1_545  S
C1045      C1046   1.415       .  A
C1046      N1047   1.432       .  S
N1047      O1051   1.262       .  A
N1047      O1052   1.260       .  A
H1049      C2196   1.084       .  S
N1050      O1054   1.262       .  A
N1050      O1053   1.262       .  A
C1055      C1056   1.400       .  A
C1055      C1060   1.400       .  A
C1055      H1062   1.085       .  S
C1056      C1057   1.413       .  A
C1057      C1058   1.411       .  A
C1057      N1064   1.432       .  S
C1058      C1059   1.405       .  A
C1058      H1063   1.083       .  S
C1059      C1060   1.414       .  A
C1060      N1061   1.432       .  S
N1061      O1065   1.262       .  A
N1061      O1066   1.261       .  A
N1064      O1068   1.262       .  A
N1064      O1067   1.262       .  A
C1069      C1070   1.407       .  A
C1069      C1074   1.402       .  A
C1069      H3380   1.083       .  S
C1070      C1071   1.421       .  A
C1071      C1072   1.405       .  A
C1071      N1078   1.432       .  S
C1072      C1073   1.402       .  A
C1072      H1077   1.084       .  S
C1073      C1074   1.410       .  A
C1074      N3379   1.429       .  S
N1075      C3378   1.431       .  S
N1075      O1079   1.261   1_655  A
N1075      O3384   1.262       .  A
H1076      C3373   1.084   1_455  S
N1078      O1082   1.262       .  A
N1078      O1081   1.262       .  A
O1080      N3379   1.262       .  A
C1083      C1084   1.397       .  A
C1083      C1088   1.399       .  A
C1083      H1090   1.085       .  S
C1084      C1085   1.406       .  A
C1085      C1086   1.406       .  A
C1085      N2244   1.427       .  S
C1086      C1087   1.410       .  A
C1086      H2243   1.083   1_545  S
C1087      C1088   1.421       .  A
C1088      N1089   1.431       .  S
N1089      O1093   1.262       .  A
N1089      O1094   1.262       .  A
H1091      C2238   1.083       .  S
N1092      C2237   1.428       .  S
N1092      O1096   1.261       .  A
N1092      O1095   1.262       .  A
C1097      C1098   1.406       .  A
C1097      C1102   1.409       .  A
C1097      H2256   1.083       .  S
C1098      C1172   1.482       .  S
C1098      C1099   1.407       .  A
C1099      C1100   1.394       .  A
C1099      N1106   1.425       .  S
C1100      C1101   1.398       .  A
C1100      H1105   1.082       .  S
C1101      C1102   1.414       .  A
C1102      N1103   1.436       .  S
N1103      O1107   1.263       .  A
N1103      O1108   1.262       .  A
H1104      C2249   1.084       .  S
N1106      O1110   1.262       .  A
N1106      O1109   1.261       .  A
C1111      C1112   1.393       .  A
C1111      C1116   1.396       .  A
C1111      H1118   1.085       .  S
C1112      C1113   1.410   1_455  A
C1113      C3418   1.407       .  A
C1113      N1120   1.432       .  S
C1114      C1115   1.404       .  A
C1114      C3417   1.404       .  A
C1114      H1119   1.082       .  S
C1115      C3420   1.417       .  A
C1116      C3419   1.420   1_455  A
C1116      N3421   1.432       .  S
N1117      C3420   1.432       .  S
N1117      O3425   1.262       .  A
N1117      O1122   1.262       .  A
N1120      O3428   1.262       .  A
N1120      O1123   1.262       .  A
O1121      N3421   1.262       .  A
O1124      N3424   1.262       .  A
C1125      C1130   1.410       .  A
C1125      C2278   1.405       .  A
C1125      H1132   1.079       .  S
C1126      C1127   1.407       .  A
C1126      C2277   1.408       .  A
C1127      C1128   1.394       .  A
C1127      N1134   1.430       .  S
C1128      C2281   1.407   1_545  A
C1128      H1133   1.085       .  S
C1129      C1130   1.408       .  A
C1129      C2280   1.408       .  A
C1130      N1131   1.427       .  S
N1131      O1135   1.260       .  A
N1131      O1136   1.261       .  A
N1134      O1138   1.262       .  A
N1134      O1137   1.261       .  A
C1139      C1140   1.400       .  A
C1139      C1144   1.391       .  A
C1139      H3450   1.085   1_455  S
C1140      C2306   1.473   1_455  S
C1140      C1141   1.420       .  A
C1141      C1142   1.414       .  A
C1141      N1148   1.441       .  S
C1142      C1143   1.403       .  A
C1142      H1147   1.083       .  S
C1143      C1144   1.406       .  A
C1144      N1145   1.433       .  S
N1145      O1149   1.263       .  A
N1145      O1150   1.261       .  A
H1146      C3443   1.085       .  S
N1148      O1152   1.262       .  A
N1148      O1151   1.263       .  A
O1153      C1168   1.261       .  A
O1153     Al1161   1.932       .  S
C1154      O1164   1.260       .  A
C1154      O1155   1.262       .  A
C1154      C4596   1.476       .  S
O1155     Al1157   1.906       .  S
O1156      C1158   1.258       .  A
O1156     Al1157   1.871       .  S
Al1157     O1165   1.890       .  S
Al1157     O1167   1.913       .  S
Al1157     O1166   1.774       .  S
C1158      O1171   1.271       .  A
C1158      C2267   1.486       .  S
O1159      C1169   1.264       .  A
O1159     Al1161   1.924       .  S
O1160      C1173   1.258       .  A
O1160     Al1170   1.880       .  S
Al1161     O1174   1.935       .  S
Al1161     O1171   1.963       .  S
Al1161     O1166   1.790       .  S
O1162      C1169   1.261       .  A
O1162     Al1170   1.904       .  S
O1163      C1172   1.265       .  A
O1163     Al1170   1.932       .  S
O1164     Al1170   1.912       .  S
O1165      C1172   1.261       .  A
O1166     Al1170   1.790       .  S
O1167      C1168   1.259       .  A
C1168      C2278   1.487       .  S
C1169      C2225   1.497       .  S
C1173      O1174   1.268       .  A
C1173      C2236   1.470       .  S
O1175      C1190   1.262       .  A
O1175     Al1183   1.940       .  S
C1176      O1186   1.263       .  A
C1176      O1177   1.255       .  A
C1176      C4487   1.481   1_455  S
O1177     Al1179   1.886       .  S
O1178      C1180   1.258       .  A
O1178     Al1179   1.865       .  S
Al1179     O1187   1.870       .  S
Al1179     O1189   1.900       .  S
Al1179     O1188   1.762       .  S
C1180      O1193   1.274       .  A
C1180      C2264   1.469       .  S
O1181      C1191   1.262       .  A
O1181     Al1183   1.889       .  S
O1182      C1195   1.261       .  A
O1182     Al1192   1.890       .  S
Al1183     O1196   1.923       .  S
Al1183     O1193   1.964       .  S
Al1183     O1188   1.777       .  S
O1184      C1191   1.265       .  A
O1184     Al1192   1.927       .  S
O1185      C1194   1.272       .  A
O1185     Al1192   1.954       .  S
O1186     Al1192   1.932       .  S
O1187      C1194   1.262       .  A
O1188     Al1192   1.782       .  S
O1189      C1190   1.255       .  A
C1190      C2208   1.481       .  S
C1191      C2166   1.492       .  S
C1194      C2194   1.484       .  S
C1195      O1196   1.265       .  A
C1195      C2152   1.479       .  S
O1197      C1212   1.259       .  A
O1197     Al1205   1.934       .  S
C1198      O1208   1.264       .  A
C1198      O1199   1.255       .  A
O1199     Al1201   1.885       .  S
O1200      C1202   1.258       .  A
O1200     Al1201   1.864       .  S
Al1201     O1209   1.896       .  S
Al1201     O1211   1.899       .  S
Al1201     O1210   1.777       .  S
C1202      O1215   1.274       .  A
C1202      C2124   1.481       .  S
O1203      C1213   1.262       .  A
O1203     Al1205   1.907       .  S
O1204      C1217   1.263       .  A
O1204     Al1214   1.889       .  S
Al1205     O1218   1.924       .  S
Al1205     O1215   1.968       .  S
Al1205     O1210   1.781       .  S
O1206      C1213   1.263       .  A
O1206     Al1214   1.918       .  S
O1207      C1216   1.272       .  A
O1207     Al1214   1.940       .  S
O1208     Al1214   1.926       .  S
O1209      C1216   1.264       .  A
O1210     Al1214   1.779       .  S
O1211      C1212   1.254       .  A
C1212      C2138   1.479       .  S
C1213      C2096   1.496       .  S
C1216      C4414   1.491   1_455  S
C1217      O1218   1.266       .  A
C1217      C2082   1.491       .  S
O1219      C1234   1.278       .  A
O1219     Al1227   1.989       .  S
C1220      O1230   1.273       .  A
C1220      O1221   1.258       .  A
O1221     Al1223   1.874       .  S
O1222      C1224   1.261       .  A
O1222     Al1223   1.925       .  S
Al1223     O1231   1.918       .  S
Al1223     O1233   1.872       .  S
Al1223     O1232   1.768       .  S
C1224      O1237   1.261       .  A
C1224      C2127   1.477       .  S
O1225      C1235   1.269       .  A
O1225     Al1227   1.958       .  S
O1226      C1239   1.269       .  A
O1226     Al1236   1.935       .  S
Al1227     O1240   1.896       .  S
Al1227     O1237   1.922       .  S
Al1227     O1232   1.775       .  S
O1228      C1235   1.255       .  A
O1228     Al1236   1.871       .  S
O1229      C1238   1.259       .  A
O1229     Al1236   1.912       .  S
O1230     Al1236   1.947       .  S
O1231      C1238   1.262       .  A
O1232     Al1236   1.773       .  S
O1233      C1234   1.259       .  A
C1234      C2211   1.485       .  S
C1235      C2057   1.487       .  S
C1238      C2295   1.475       .  S
C1239      O1240   1.264       .  A
C1239      C2043   1.484       .  S
O1241      C1256   1.259       .  A
O1241     Al1249   1.928       .  S
C1242      O1252   1.260       .  A
C1242      O1243   1.259       .  A
C1242      C2253   1.469       .  S
O1243     Al1245   1.900       .  S
O1244      C1246   1.257       .  A
O1244     Al1245   1.859       .  S
Al1245     O1253   1.876       .  S
Al1245     O1255   1.911       .  S
Al1245     O1254   1.772       .  S
C1246      O1259   1.276       .  A
C1246      C2026   1.482       .  S
O1247      C1257   1.263       .  A
O1247     Al1249   1.902       .  S
O1248      C1261   1.257       .  A
O1248     Al1258   1.870       .  S
Al1249     O1262   1.941       .  S
Al1249     O1259   1.978       .  S
Al1249     O1254   1.783       .  S
O1250      C1257   1.265       .  A
O1250     Al1258   1.920       .  S
O1251      C1260   1.267       .  A
O1251     Al1258   1.943       .  S
O1252     Al1258   1.905       .  S
O1253      C1260   1.262       .  A
O1254     Al1258   1.783       .  S
O1255      C1256   1.257       .  A
C1256      C2141   1.484       .  S
C1257      C1998   1.494       .  S
C1260      C4375   1.486       .  S
C1261      O1262   1.269       .  A
C1261      C2012   1.489       .  S
O1263      C1278   1.280       .  A
O1263     Al1271   1.993       .  S
C1264      O1274   1.273       .  A
C1264      O1265   1.259       .  A
C1264      C2113   1.486       .  S
O1265     Al1267   1.860       .  S
O1266      C1268   1.257       .  A
O1266     Al1267   1.910       .  S
Al1267     O1275   1.913       .  S
Al1267     O1277   1.845       .  S
Al1267     O1276   1.765       .  S
C1268      O1281   1.261       .  A
C1268      C2029   1.482       .  S
O1269      C1279   1.270       .  A
O1269     Al1271   1.950       .  S
O1270      C1283   1.265       .  A
O1270     Al1280   1.923       .  S
Al1271     O1284   1.897       .  S
Al1271     O1281   1.939       .  S
Al1271     O1276   1.774       .  S
O1272      C1279   1.260       .  A
O1272     Al1280   1.874       .  S
O1273      C1282   1.259       .  A
O1273     Al1280   1.912       .  S
O1274     Al1280   1.961       .  S
O1275      C1282   1.259       .  A
O1276     Al1280   1.777       .  S
O1277      C1278   1.257       .  A
C1278      C2281   1.488       .  S
C1279      C1970   1.489       .  S
C1283      O1284   1.263       .  A
C1283      C1984   1.482       .  S
O1285     Al1293   1.982       .  S
C1286      O1296   1.276       .  A
C1286      O1287   1.260       .  A
C1286      C1942   1.494       .  S
O1287     Al1289   1.869       .  S
O1288      C1290   1.262       .  A
O1288     Al1289   1.924       .  S
Al1289     O1297   1.914       .  S
Al1289     O1299   1.877       .  S
Al1289     O1298   1.769       .  S
C1290      O1303   1.260       .  A
C1290      C1956   1.475       .  S
O1291      C1301   1.266       .  A
O1291     Al1293   1.937       .  S
O1292     Al1302   1.949       .  S
Al1293     O1306   1.884       .  S
O1294     Al1302   1.896       .  S
O1295      C1304   1.259       .  A
O1295     Al1302   1.918       .  S
O1296     Al1302   1.968       .  S
O1297      C1304   1.260       .  A
O1298     Al1302   1.774       .  S
O1299      C1300   1.259       .  A
C1300      C1928   1.474       .  S
C1301      C2054   1.493       .  S
C1304      C1917   1.478       .  S
C1305      O1306   1.262       .  A
C1305      C2239   1.494       .  S
O1307      C1322   1.260       .  A
O1307     Al1315   1.942       .  S
C1308      O1318   1.262       .  A
C1308      O1309   1.256       .  A
C1308      C1900   1.479       .  S
O1309     Al1311   1.891       .  S
O1310      C1312   1.258       .  A
O1310     Al1311   1.863       .  S
Al1311     O1319   1.878       .  S
Al1311     O1321   1.899       .  S
Al1311     O1320   1.777       .  S
C1312      O1325   1.273       .  A
C1312      C1959   1.474       .  S
O1313      C1323   1.266       .  A
O1313     Al1315   1.923       .  S
O1314      C1327   1.261       .  A
O1314     Al1324   1.893       .  S
Al1315     O1328   1.915       .  S
Al1315     O1325   1.966       .  S
Al1315     O1320   1.784       .  S
O1316      C1323   1.263       .  A
O1316     Al1324   1.906       .  S
O1317      C1326   1.269       .  A
O1317     Al1324   1.942       .  S
O1318     Al1324   1.924       .  S
O1319      C1326   1.263       .  A
O1320     Al1324   1.787       .  S
O1321      C1322   1.253       .  A
C1322      C1886   1.484       .  S
C1323      C1858   1.497       .  S
C1326      C1875   1.487       .  S
C1327      O1328   1.264       .  A
C1327      C1844   1.475       .  S
O1329      C1344   1.261   1_655  A
O1329     Al3641   1.930       .  S
C1330      O1340   1.262       .  A
C1330      O1331   1.257       .  A
C1330      C1816   1.478       .  S
O1331     Al1333   1.893       .  S
O1332      C1334   1.258       .  A
O1332     Al1333   1.863       .  S
Al1333     O1341   1.884       .  S
Al1333     O1343   1.907       .  S
Al1333     O1342   1.774       .  S
C1334      O1347   1.270   1_455  A
C1334      C1833   1.471       .  S
O1335      C1345   1.262       .  A
O1335     Al1337   1.896       .  S
O1336      C3653   1.260       .  A
O1336     Al1346   1.891       .  S
Al1337     O3633   1.938       .  S
Al1337     O1350   1.925       .  S
Al1337     O3651   1.972       .  S
Al1337     O3646   1.777       .  S
O1338      C3649   1.268   1_455  A
O1338     Al1346   1.931       .  S
O1339      C1348   1.271       .  A
O1339     Al1346   1.944       .  S
O1340     Al1346   1.916       .  S
O1341      C1348   1.262       .  A
O1342     Al3641   1.784   1_455  S
O1342     Al1346   1.779       .  S
O1343      C1344   1.257       .  A
C1344      C1889   1.481       .  S
C1345      O3642   1.268       .  A
C1345      C2222   1.499       .  S
O1347     Al3641   1.958       .  S
C1348      C1945   1.489       .  S
C1349      O3640   1.261       .  A
C1349      O1350   1.265       .  A
C1349      C2015   1.475       .  S
O1351      C1366   1.263       .  A
O1351     Al1359   1.942       .  S
C1352      O1362   1.263       .  A
C1352      O1353   1.253       .  A
C1352      C1872   1.477       .  S
O1353     Al1355   1.883       .  S
O1354      C1356   1.260       .  A
O1354     Al1355   1.870       .  S
Al1355     O1363   1.891       .  S
Al1355     O1365   1.905       .  S
Al1355     O1364   1.777       .  S
C1356      O1369   1.272       .  A
C1356      C1830   1.472       .  S
O1357      C1367   1.264       .  A
O1357     Al1359   1.903       .  S
O1358      C1371   1.262       .  A
O1358     Al1368   1.897       .  S
Al1359     O1372   1.909       .  S
Al1359     O1369   1.958       .  S
Al1359     O1364   1.779       .  S
O1360      C1367   1.265       .  A
O1360     Al1368   1.923       .  S
O1361      C1370   1.270       .  A
O1361     Al1368   1.938       .  S
O1362     Al1368   1.928       .  S
O1363      C1370   1.267       .  A
O1364     Al1368   1.781       .  S
O1365      C1366   1.254       .  A
C1366      C1802   1.481       .  S
C1367      C1760   1.498       .  S
C1370      C1791   1.489       .  S
C1371      O1372   1.261       .  A
C1371      C1774   1.481       .  S
O1373      C1388   1.257       .  A
O1373     Al1381   1.923       .  S
C1374      O1384   1.263       .  A
C1374      O1375   1.255       .  A
C1374      C1788   1.480       .  S
O1375     Al1377   1.888       .  S
O1376      C1378   1.257       .  A
O1376     Al1377   1.863       .  S
Al1377     O1385   1.882       .  S
Al1377     O1387   1.901       .  S
Al1377     O1386   1.776       .  S
C1378      O1391   1.275       .  A
C1378      C1746   1.476       .  S
O1379      C1389   1.261       .  A
O1379     Al1381   1.897       .  S
O1380      C1393   1.261       .  A
O1380     Al1390   1.895       .  S
Al1381     O1394   1.925       .  S
Al1381     O1391   1.973       .  S
Al1381     O1386   1.784       .  S
O1382      C1389   1.265       .  A
O1382     Al1390   1.921       .  S
O1383      C1392   1.270       .  A
O1383     Al1390   1.944       .  S
O1384     Al1390   1.928       .  S
O1385      C1392   1.264       .  A
O1386     Al1390   1.786       .  S
O1387      C1388   1.254       .  A
C1388      C1931   1.473       .  S
C1389      C1732   1.495       .  S
C1392      C1903   1.488       .  S
C1393      O1394   1.266       .  A
C1393      C1721   1.486       .  S
O1395      C1410   1.261       .  A
O1395     Al1403   1.934       .  S
C1396      O1406   1.259       .  A
C1396      O1397   1.255       .  A
C1396      C1914   1.473       .  S
O1397     Al1399   1.890       .  S
O1398      C1400   1.260       .  A
O1398     Al1399   1.867       .  S
Al1399     O1407   1.880       .  S
Al1399     O1409   1.916       .  S
Al1399     O1408   1.775       .  S
C1400      O1413   1.276       .  A
C1400      C1749   1.485       .  S
O1401      C1411   1.264       .  A
O1401     Al1403   1.903       .  S
O1402      C1415   1.258       .  A
O1402     Al1412   1.887       .  S
Al1403     O1416   1.932       .  S
Al1403     O1413   1.975       .  S
Al1403     O1408   1.780       .  S
O1404      C1411   1.266       .  A
O1404     Al1412   1.924       .  S
O1405      C1414   1.272       .  A
O1405     Al1412   1.947       .  S
O1406     Al1412   1.922       .  S
O1407      C1414   1.265       .  A
O1408     Al1412   1.781       .  S
O1409      C1410   1.256       .  A
C1410      C1805   1.483       .  S
C1411      C2001   1.491       .  S
C1414      C1819   1.488       .  S
C1415      O1416   1.266       .  A
C1415      C2040   1.490       .  S
O1417      C1432   1.261       .  A
O1417     Al1425   1.938       .  S
C1418      O1428   1.270       .  A
C1418      O1419   1.269       .  A
C1418      C1693   1.473       .  S
O1419     Al1421   1.914       .  S
O1420      C1422   1.259       .  A
O1420     Al1421   1.875       .  S
Al1421     O1429   1.896       .  S
Al1421     O1431   1.865       .  S
Al1421     O1430   1.776       .  S
C1422      O1435   1.266       .  A
C1422      C1704   1.483       .  S
O1423      C1433   1.257       .  A
O1423     Al1425   1.933       .  S
O1424      C1437   1.269       .  A
O1424     Al1434   1.886       .  S
Al1425     O1438   1.941       .  S
Al1425     O1435   1.936       .  S
Al1425     O1430   1.797       .  S
O1426      C1433   1.246       .  A
O1426     Al1434   1.871       .  S
O1427      C1436   1.250       .  A
O1427     Al1434   1.902       .  S
O1428     Al1434   1.913       .  S
O1429      C1436   1.249       .  A
O1430     Al1434   1.805       .  S
O1431      C1432   1.250       .  A
C1432      C1676   1.486       .  S
C1433      C1763   1.491       .  S
C1436      C1665   1.465       .  S
C1437      O1438   1.277       .  A
C1437      C1718   1.470       .  S
O1439      C3758   1.262       .  A
O1439     Al1447   1.924       .  S
C1440      O1450   1.261       .  A
C1440      O1441   1.265       .  A
C1440      C1623   1.471       .  S
O1441     Al1443   1.924       .  S
O1442      C1444   1.258       .  A
O1442     Al1443   1.852       .  S
Al1443     O1451   1.872       .  S
Al1443     O1453   1.898       .  S
Al1443     O1452   1.769       .  S
C1444      O3761   1.273       .  A
C1444      C1707   1.496       .  S
O1445      C1455   1.260       .  A
O1445     Al1447   1.916   1_455  S
O1446      C3763   1.262       .  A
O1446     Al1456   1.876       .  S
Al1447     O1460   1.955   1_655  S
Al1447     O1457   1.955       .  S
Al1447     O3756   1.790       .  S
O1448      C3759   1.255       .  A
O1448     Al1456   1.900       .  S
O1449      C1458   1.264       .  A
O1449     Al1456   1.944       .  S
O1450     Al1456   1.910       .  S
O1451      C1458   1.257       .  A
O1452     Al3751   1.785       .  S
O1452     Al1456   1.791       .  S
O1453      C1454   1.256       .  A
C1454      O3743   1.261       .  A
C1454      C1648   1.482       .  S
C1455      O3752   1.256   1_455  A
C1455      C2169   1.492       .  S
O1457      C3748   1.269       .  A
C1458      C1637   1.480       .  S
C1459      O3750   1.262   1_455  A
C1459      O1460   1.274       .  A
C1459      C2085   1.470       .  S
O1461      C1476   1.264       .  A
O1461     Al1469   1.928       .  S
C1462      O1472   1.259       .  A
C1462      O1463   1.260       .  A
C1462      C1592   1.465       .  S
O1463     Al1465   1.895       .  S
O1464      C1466   1.257       .  A
O1464     Al1465   1.877       .  S
Al1465     O1473   1.873       .  S
Al1465     O1475   1.908       .  S
Al1465     O1474   1.765       .  S
C1466      O1479   1.270       .  A
C1466      C1606   1.487       .  S
O1467      C1477   1.264       .  A
O1467     Al1469   1.904       .  S
O1468      C1481   1.259       .  A
O1468     Al1478   1.884       .  S
Al1469     O1482   1.942       .  S
Al1469     O1479   1.962       .  S
Al1469     O1474   1.783       .  S
O1470      C1477   1.266       .  A
O1470     Al1478   1.923       .  S
O1471      C1480   1.265       .  A
O1471     Al1478   1.943       .  S
O1472     Al1478   1.905       .  S
O1473      C1480   1.259       .  A
O1474     Al1478   1.786       .  S
O1475      C1476   1.260       .  A
C1476      C1651   1.480       .  S
C1477      C1735   1.488       .  S
C1480      C1690   1.491       .  S
C1481      O1482   1.268       .  A
C1481      C1847   1.480       .  S
O1483      C1498   1.263       .  A
O1483     Al1491   1.934       .  S
C1484      O1494   1.258       .  A
C1484      O1485   1.260       .  A
C1484      C1662   1.464       .  S
O1485     Al1487   1.907       .  S
O1486      C1488   1.262       .  A
O1486     Al1487   1.882       .  S
Al1487     O1495   1.882       .  S
Al1487     O1497   1.903       .  S
Al1487     O1496   1.768       .  S
C1488      O1501   1.274       .  A
C1488      C1578   1.493       .  S
O1489      C1499   1.264       .  A
O1489     Al1491   1.913       .  S
O1490      C1503   1.256       .  A
O1490     Al1500   1.868       .  S
Al1491     O1504   1.946       .  S
Al1491     O1501   1.969       .  S
Al1491     O1496   1.781       .  S
O1492      C1499   1.264       .  A
O1492     Al1500   1.916       .  S
O1493      C1502   1.268       .  A
O1493     Al1500   1.939       .  S
O1494     Al1500   1.905       .  S
O1495      C1502   1.260       .  A
O1496     Al1500   1.782       .  S
O1497      C1498   1.258       .  A
C1498      C1564   1.483       .  S
C1499      C1861   1.498       .  S
C1502      C1595   1.480       .  S
C1503      O1504   1.268       .  A
C1503      C1777   1.478       .  S
O1505     Al1513   1.944   1_545  S
C1506      O1516   1.273       .  A
C1506      O1507   1.261       .  A
C1506      C1550   1.477       .  S
O1507     Al1509   1.862       .  S
O1508      C1510   1.258       .  A
O1508     Al1509   1.906       .  S
Al1509     O1517   1.895       .  S
Al1509     O1519   1.887       .  S
Al1509     O1518   1.773       .  S
C1510      C1581   1.481       .  S
O1511      C1521   1.270       .  A
O1511     Al1513   1.919       .  S
O1512     Al1522   1.929       .  S
Al1513     O1526   1.929       .  S
Al1513     O1523   1.969   1_565  S
O1514     Al1522   1.884       .  S
O1515      C1524   1.256       .  A
O1515     Al1522   1.914       .  S
O1516     Al1522   1.954       .  S
O1517      C1524   1.253       .  A
O1518     Al1522   1.787       .  S
O1519      C1520   1.261       .  A
C1520      C1679   1.487       .  S
C1521      C2099   1.494       .  S
C1524      C1620   1.472       .  S
C1525      O1526   1.264       .  A
C1525      C1987   1.487       .  S
O1527      C1542   1.266       .  A
O1527     Al1535   1.925       .  S
C1528      O1538   1.257       .  A
C1528      O1529   1.259       .  A
C1528      C1634   1.465       .  S
O1529     Al1531   1.895       .  S
O1530      C1532   1.253       .  A
O1530     Al1531   1.877       .  S
Al1531     O1539   1.860       .  S
Al1531     O1541   1.925       .  S
Al1531     O1540   1.760       .  S
C1532      O1545   1.271       .  A
C1532      C1609   1.483       .  S
O1533      C1543   1.269       .  A
O1533     Al1535   1.903       .  S
O1534      C1547   1.257       .  A
O1534     Al1544   1.881       .  S
Al1535     O1548   1.937       .  S
Al1535     O1545   1.973       .  S
Al1535     O1540   1.784       .  S
O1536      C1543   1.270       .  A
O1536     Al1544   1.934       .  S
O1537      C1546   1.267       .  A
O1537     Al1544   1.946       .  S
O1538     Al1544   1.900       .  S
O1539      C1546   1.256       .  A
O1540     Al1544   1.783       .  S
O1541      C1542   1.265       .  A
C1542      C1567   1.482       .  S
C1543      C1973   1.487       .  S
C1546      C1553   1.478       .  S
C1547      O1548   1.265       .  A
C1547      C2155   1.482       .  S
C1549      C1550   1.401       .  A
C1549      C1554   1.384       .  A
C1549      H1556   1.085       .  S
C1550      C1551   1.411       .  A
C1551      C1552   1.412       .  A
C1551      N1558   1.429       .  S
C1552      C1553   1.408       .  A
C1552      H1557   1.083       .  S
C1553      C1554   1.412       .  A
C1554      N1555   1.433       .  S
N1555      O1559   1.262       .  A
N1555      O1560   1.262       .  A
N1558      O1562   1.262       .  A
N1558      O1561   1.262       .  A
C1563      C1564   1.407       .  A
C1563      C1568   1.418       .  A
C1563      H1570   1.083       .  S
C1564      C1565   1.408       .  A
C1565      C1566   1.396       .  A
C1565      N1572   1.430       .  S
C1566      C1567   1.402       .  A
C1566      H1571   1.084       .  S
C1567      C1568   1.418       .  A
C1568      N1569   1.440       .  S
N1569      O1573   1.262       .  A
N1569      O1574   1.263       .  A
N1572      O1576   1.262       .  A
N1572      O1575   1.261       .  A
C1577      C1578   1.409       .  A
C1577      C1582   1.413       .  A
C1577      H1584   1.083       .  S
C1578      C1579   1.414       .  A
C1579      C1580   1.399       .  A
C1579      N1586   1.430       .  S
C1580      C1581   1.401       .  A
C1581      C1582   1.412       .  A
C1582      N1583   1.430       .  S
N1583      O1587   1.262       .  A
N1583      O1588   1.262       .  A
C1591      C1592   1.399       .  A
C1591      C1596   1.394       .  A
C1591      H1598   1.084       .  S
C1592      C1593   1.407       .  A
C1593      C1594   1.404       .  A
C1593      N1600   1.432   1_556  S
C1594      C1595   1.406       .  A
C1594      H1599   1.081   1_556  S
C1595      C1596   1.412       .  A
C1596      N1597   1.430       .  S
N1597      O1601   1.261       .  A
N1597      O1602   1.262       .  A
N1600      O1604   1.262       .  A
N1600      O1603   1.262       .  A
C1605      C1606   1.406       .  A
C1605      C1610   1.403       .  A
C1605      H1612   1.084       .  S
C1606      C1607   1.409       .  A
C1607      C1608   1.406       .  A
C1607      N1614   1.428       .  S
C1608      C1609   1.407       .  A
C1608      H1613   1.083       .  S
C1609      C1610   1.409       .  A
C1610      N1611   1.429       .  S
N1611      O1615   1.261       .  A
N1611      O1616   1.262       .  A
N1614      O1618   1.261       .  A
N1614      O1617   1.262       .  A
C1619      C1620   1.404       .  A
C1619      C1624   1.407       .  A
C1619      H1626   1.083       .  S
C1620      C1621   1.414       .  A
C1621      C1622   1.401       .  A
C1621      N1628   1.436       .  S
C1622      C1623   1.397       .  A
C1622      H1627   1.083       .  S
C1623      C1624   1.410       .  A
C1624      N1625   1.432       .  S
N1625      O1629   1.262       .  A
N1625      O1630   1.262       .  A
N1628      O1632   1.262       .  A
N1628      O1631   1.263       .  A
C1633      C1634   1.401       .  A
C1633      C1638   1.408       .  A
C1633      H1640   1.084       .  S
C1634      C1635   1.403       .  A
C1635      C1636   1.392       .  A
C1635      N1642   1.428       .  S
C1636      C1637   1.404       .  A
C1636      H1641   1.083       .  S
C1637      C1638   1.419       .  A
C1638      N1639   1.437       .  S
N1639      O1643   1.262       .  A
N1639      O1644   1.263       .  A
N1642      O1646   1.261       .  A
N1642      O1645   1.262       .  A
C1647      C1648   1.403       .  A
C1647      C1652   1.412       .  A
C1647      H3958   1.084       .  S
C1648      C1649   1.415       .  A
C1649      C1650   1.409       .  A
C1649      N1656   1.440       .  S
C1650      C1651   1.401       .  A
C1650      H1655   1.082       .  S
C1651      C1652   1.418       .  A
C1652      N3957   1.445       .  S
N1653      C3956   1.438       .  S
N1653      O1657   1.263       .  A
N1653      O1658   1.263       .  A
H1654      C3951   1.084       .  S
N1656      O1660   1.262       .  A
N1656      O1659   1.263       .  A
C1661      C1662   1.401       .  A
C1661      C1666   1.408       .  A
C1661      H1668   1.082       .  S
C1662      C1663   1.405       .  A
C1663      C1664   1.392       .  A
C1663      N1670   1.428       .  S
C1664      C1665   1.399       .  A
C1664      H1669   1.085       .  S
C1665      C1666   1.413       .  A
C1666      N1667   1.440       .  S
N1667      O1671   1.263       .  A
N1667      O1672   1.262       .  A
N1670      O1674   1.262       .  A
N1670      O1673   1.261   1_556  A
C1675      C1676   1.403       .  A
C1675      C1680   1.411       .  A
C1675      H1682   1.084       .  S
C1676      C1677   1.413       .  A
C1677      C1678   1.406       .  A
C1677      N1684   1.436       .  S
C1678      C1679   1.403       .  A
C1679      C1680   1.419       .  A
C1680      N1681   1.435       .  S
N1681      O1685   1.262       .  A
N1681      O1686   1.262       .  A
N1684      O1687   1.262       .  A
C1689      C1690   1.405       .  A
C1689      C1694   1.389       .  A
C1689      H1696   1.083       .  S
C1690      C1691   1.422       .  A
C1691      C1692   1.413       .  A
C1691      N1698   1.435   1_556  S
C1692      C1693   1.402       .  A
C1692      H1697   1.084   1_556  S
C1693      C1694   1.404       .  A
C1694      N1695   1.428       .  S
N1695      O1699   1.262       .  A
N1695      O1700   1.261       .  A
N1698      O1702   1.262       .  A
N1698      O1701   1.263       .  A
C1703      C1704   1.408       .  A
C1703      C1708   1.416       .  A
C1703      H1710   1.083       .  S
C1704      C1705   1.407       .  A
C1705      C1706   1.389       .  A
C1705      N1712   1.430       .  S
C1706      C1707   1.407       .  A
C1706      H1711   1.084       .  S
C1707      C1708   1.416       .  A
C1708      N4013   1.427       .  S
N1709      C4012   1.431       .  S
N1709      O1713   1.262   1_655  A
N1709      O1714   1.262   1_655  A
N1712      O1716   1.260       .  A
N1712      O1715   1.262       .  A
C1717      C1722   1.406       .  A
C1717      H1724   1.084       .  S
C1718      C1719   1.406   1_556  A
C1719      C1720   1.400       .  A
C1719      N1726   1.429       .  S
C1720      H1725   1.084       .  S
C1721      C1722   1.415   1_554  A
C1722      N1723   1.429       .  S
N1723      O1727   1.262       .  A
N1723      O1728   1.262       .  A
N1726      O1730   1.262       .  A
N1726      O1729   1.262       .  A
C1731      C1732   1.408   1_556  A
C1731      C1736   1.405       .  A
C1731      H1738   1.084       .  S
C1732      C1733   1.416       .  A
C1733      C1734   1.403       .  A
C1733      N1740   1.429       .  S
C1734      C1735   1.405   1_554  A
C1734      H1739   1.084       .  S
C1735      C1736   1.414       .  A
C1736      N1737   1.432       .  S
N1737      O1741   1.262       .  A
N1737      O1742   1.262       .  A
N1740      O1744   1.262       .  A
N1740      O1743   1.262       .  A
C1745      C1746   1.406       .  A
C1745      C1750   1.411       .  A
C1745      H1752   1.084       .  S
C1746      C1747   1.406       .  A
C1747      C1748   1.400       .  A
C1747      N1754   1.428       .  S
C1748      C1749   1.406       .  A
C1748      H1753   1.085       .  S
C1749      C1750   1.412       .  A
C1750      N1751   1.435       .  S
N1751      O1755   1.262       .  A
N1751      O1756   1.262       .  A
N1754      O1758   1.262       .  A
N1754      O1757   1.262       .  A
C1759      C1760   1.414   1_556  A
C1759      C1764   1.412       .  A
C1759      H1766   1.083       .  S
C1760      C1761   1.414       .  A
C1761      C4066   1.399   1_455  A
C1761      N4072   1.431       .  S
C1762      C4065   1.401       .  A
C1762      C1763   1.406   1_554  A
C1762      H1767   1.084       .  S
C1763      C4068   1.412       .  A
C1764      C4067   1.410   1_455  A
C1764      N1765   1.432       .  S
N1765      O1769   1.263   1_455  A
N1765      O4074   1.262       .  A
N1768      C4065   1.430       .  S
N1768      O1772   1.262       .  A
N1768      O4075   1.262       .  A
O1770      N4069   1.262       .  A
O1771      N4072   1.262   1_655  A
C1773      C1774   1.401       .  A
C1773      C1778   1.399   1_554  A
C1773      H1780   1.084       .  S
C1774      C1775   1.415       .  A
C1775      C1776   1.404   1_554  A
C1775      N1782   1.429       .  S
C1776      C1777   1.401       .  A
C1776      H1781   1.084       .  S
C1777      C1778   1.413       .  A
C1778      N1779   1.432       .  S
N1779      O1783   1.262       .  A
N1779      O1784   1.262       .  A
N1782      O1786   1.262       .  A
N1782      O1785   1.262   1_554  A
C1787      C1788   1.402       .  A
C1787      C1792   1.407       .  A
C1787      H1794   1.084       .  S
C1788      C1789   1.414       .  A
C1789      C1790   1.394       .  A
C1789      N1796   1.430       .  S
C1790      C1791   1.403       .  A
C1790      H1795   1.084       .  S
C1791      C1792   1.418       .  A
C1792      N1793   1.428       .  S
N1793      O1797   1.262   1_554  A
N1793      O1798   1.262   1_554  A
N1796      O1800   1.260       .  A
N1796      O1799   1.262       .  A
C1801      C1802   1.404       .  A
C1801      C1806   1.410       .  A
C1801      H1808   1.084       .  S
C1802      C1803   1.410       .  A
C1803      C1804   1.406       .  A
C1803      N1810   1.430       .  S
C1804      C1805   1.404       .  A
C1804      H1809   1.084       .  S
C1805      C1806   1.413       .  A
C1806      N1807   1.436       .  S
N1807      O1811   1.262       .  A
N1807      O1812   1.263       .  A
N1810      O1814   1.262       .  A
N1810      O1813   1.262       .  A
C1815      C1816   1.403       .  A
C1815      C1820   1.406       .  A
C1815      H1822   1.084       .  S
C1816      C1817   1.413       .  A
C1817      C1818   1.393       .  A
C1817      N1824   1.430       .  S
C1818      C1819   1.405       .  A
C1818      H1823   1.084       .  S
C1819      C1820   1.416       .  A
C1820      N1821   1.428       .  S
N1821      O1825   1.262       .  A
N1821      O1826   1.262       .  A
N1824      O1828   1.261       .  A
N1824      O1827   1.262       .  A
C1829      C1830   1.400       .  A
C1829      C1834   1.403       .  A
C1829      H1836   1.084       .  S
C1830      C1831   1.418       .  A
C1831      C1832   1.405       .  A
C1831      N1838   1.440       .  S
C1832      C1833   1.399       .  A
C1832      H1837   1.084   1_455  S
C1833      C1834   1.415       .  A
C1834      N1835   1.436       .  S
N1835      O1839   1.262       .  A
N1835      O1840   1.262       .  A
N1838      O1842   1.262       .  A
N1838      O1841   1.262   1_455  A
C1843      C1844   1.399       .  A
C1843      C4152   1.399   1_455  A
C1843      H1850   1.082       .  S
C1844      C1845   1.410   1_554  A
C1845      C1846   1.406       .  A
C1845      N1852   1.430       .  S
C1846      C4151   1.404   1_455  A
C1846      H1851   1.084       .  S
C1847      C4150   1.402       .  A
C1847      C1848   1.410       .  A
C1848      C4147   1.405   1_556  A
C1848      N1849   1.430       .  S
N1849      O1853   1.262   1_556  A
N1849      O1854   1.262       .  A
N1852      O1856   1.262       .  A
N1852      O1855   1.262       .  A
C1857      C1858   1.409   1_556  A
C1857      H1864   1.083       .  S
C1858      C1859   1.413   1_565  A
C1859      N1866   1.429       .  S
C1860      C1861   1.410   1_554  A
C1860      H1865   1.083       .  S
C1861      C1862   1.415       .  A
C1862      N1863   1.429       .  S
N1863      O1868   1.262       .  A
N1866      O1870   1.262       .  A
N1866      O1869   1.262       .  A
C1871      C1872   1.403       .  A
C1871      C1876   1.408       .  A
C1871      H1878   1.084       .  S
C1872      C1873   1.415       .  A
C1873      C1874   1.391       .  A
C1873      N1880   1.431       .  S
C1874      C1875   1.403       .  A
C1874      H1879   1.084       .  S
C1875      C1876   1.416       .  A
C1876      N1877   1.429       .  S
N1877      O1881   1.262   1_554  A
N1877      O1882   1.262   1_554  A
N1880      O1884   1.261       .  A
N1880      O1883   1.262       .  A
C1885      C1886   1.404       .  A
C1885      C1890   1.410       .  A
C1885      H1892   1.083       .  S
C1886      C1887   1.412       .  A
C1887      C1888   1.405       .  A
C1887      N1894   1.430       .  S
C1888      C1889   1.402       .  A
C1888      H4197   1.084       .  S
C1889      C1890   1.415       .  A
C1890      N1891   1.437       .  S
N1891      O1895   1.263       .  A
N1891      O1896   1.262       .  A
H1893      C4192   1.084       .  S
N1894      O4202   1.260       .  A
N1894      O1897   1.262       .  A
O1898      N4198   1.262       .  A
C1899      C1900   1.403       .  A
C1899      C1904   1.408       .  A
C1899      H1906   1.084       .  S
C1900      C1901   1.412       .  A
C1901      C1902   1.392       .  A
C1901      N1908   1.430       .  S
C1902      C1903   1.404       .  A
C1902      H1907   1.084       .  S
C1903      C1904   1.417       .  A
C1904      N1905   1.429       .  S
N1905      O1909   1.262   1_554  A
N1905      O1910   1.262   1_554  A
N1908      O1912   1.260       .  A
N1908      O1911   1.262       .  A
C1913      C1914   1.400       .  A
C1913      C1918   1.392       .  A
C1913      H1920   1.085       .  S
C1914      C1915   1.413       .  A
C1915      C1916   1.414       .  A
C1915      N1922   1.434       .  S
C1916      C1917   1.407       .  A
C1916      H1921   1.083       .  S
C1917      C1918   1.408       .  A
C1918      N1919   1.431       .  S
N1919      O1923   1.263       .  A
N1919      O1924   1.261       .  A
N1922      O1926   1.262       .  A
N1922      O1925   1.262       .  A
C1927      C1928   1.403       .  A
C1927      C1932   1.409       .  A
C1927      H1934   1.083       .  S
C1928      C1929   1.406       .  A
C1929      C1930   1.402       .  A
C1929      N1936   1.427       .  S
C1930      C1931   1.404       .  A
C1930      H1935   1.085       .  S
C1931      C1932   1.414       .  A
C1932      N1933   1.442       .  S
N1933      O1937   1.263       .  A
N1933      O1938   1.263       .  A
N1936      O1940   1.261       .  A
N1936      O1939   1.261   1_565  A
C1941      C1942   1.408       .  A
C1941      C1946   1.394       .  A
C1941      H1948   1.084       .  S
C1942      C1943   1.415       .  A
C1943      C1944   1.411       .  A
C1943      N1950   1.435       .  S
C1944      C1945   1.408       .  A
C1944      H1949   1.083       .  S
C1945      C1946   1.413       .  A
C1946      N1947   1.431       .  S
N1947      O1951   1.261       .  A
N1947      O1952   1.262       .  A
N1950      O1954   1.262       .  A
N1950      O1953   1.263       .  A
C1955      C1956   1.404       .  A
C1955      C1960   1.405       .  A
C1955      H1962   1.085       .  S
C1956      C1957   1.410       .  A
C1957      C1958   1.407       .  A
C1958      C1959   1.404       .  A
C1958      H1963   1.084       .  S
C1959      C1960   1.412       .  A
C1960      N1961   1.436       .  S
N1961      O1965   1.262       .  A
N1961      O1966   1.262       .  A
N1964      O1968   1.263       .  A
N1964      O1967   1.263       .  A
C1969      C1970   1.407       .  A
C1969      C1974   1.400       .  A
C1969      H1976   1.084       .  S
C1970      C1971   1.413       .  A
C1971      C1972   1.410       .  A
C1971      N1978   1.432       .  S
C1972      C1973   1.409       .  A
C1972      H1977   1.084       .  S
C1973      C1974   1.412       .  A
C1974      N1975   1.433       .  S
N1975      O1979   1.262       .  A
N1975      O1980   1.262       .  A
N1978      O1982   1.262       .  A
N1978      O1981   1.262       .  A
C1983      C1984   1.405       .  A
C1983      C1988   1.405       .  A
C1983      H1990   1.084       .  S
C1984      C1985   1.411       .  A
C1985      C1986   1.402       .  A
C1985      N1992   1.432       .  S
C1986      C1987   1.407       .  A
C1987      C1988   1.412       .  A
C1988      N1989   1.429       .  S
N1989      O1993   1.262       .  A
N1989      O1994   1.262       .  A
C1997      C1998   1.406       .  A
C1997      C2002   1.403       .  A
C1997      H2004   1.084       .  S
C1998      C1999   1.416       .  A
C1999      C2000   1.404       .  A
C1999      N2006   1.430       .  S
C2000      C2001   1.405       .  A
C2000      H2005   1.084       .  S
C2001      C2002   1.413       .  A
C2002      N2003   1.428       .  S
N2003      O2007   1.262       .  A
N2003      O2008   1.262       .  A
N2006      O2010   1.262       .  A
N2006      O2009   1.262       .  A
C2011      C2012   1.407       .  A
C2011      C2016   1.407       .  A
C2011      H2018   1.083       .  S
C2012      C2013   1.418       .  A
C2013      C2014   1.396       .  A
C2013      N4324   1.429       .  S
C2014      C2015   1.398       .  A
C2014      H4323   1.085       .  S
C2015      C2016   1.412       .  A
C2016      N2017   1.433       .  S
N2017      O2021   1.262       .  A
N2017      O2022   1.262       .  A
H2019      C4318   1.084       .  S
N2020      C4317   1.432   1_455  S
N2020      O2024   1.262       .  A
N2020      O2023   1.262       .  A
C2025      C2026   1.403       .  A
C2025      C2030   1.409       .  A
C2025      H2032   1.084       .  S
C2026      C2027   1.420       .  A
C2027      C2028   1.408       .  A
C2027      N2034   1.444       .  S
C2028      C2029   1.400       .  A
C2028      H2033   1.083       .  S
C2029      C2030   1.412       .  A
C2030      N2031   1.429       .  S
N2031      O2035   1.261       .  A
N2031      O2036   1.261       .  A
N2034      O2038   1.263       .  A
N2034      O2037   1.263       .  A
C2039      C2040   1.407       .  A
C2039      C2044   1.409       .  A
C2039      H2046   1.084       .  S
C2040      C2041   1.415       .  A
C2041      C2042   1.400       .  A
C2041      N2048   1.429       .  S
C2042      C2043   1.401       .  A
C2042      H2047   1.083       .  S
C2043      C2044   1.413       .  A
C2044      N2045   1.431       .  S
N2045      O2049   1.262       .  A
N2045      O2050   1.262       .  A
N2048      O2052   1.261       .  A
N2048      O2051   1.262       .  A
C2053      C2054   1.404       .  A
C2053      C2058   1.399       .  A
C2054      C2055   1.417       .  A
C2055      C2056   1.410       .  A
C2055      N2062   1.429       .  S
C2056      C2057   1.404       .  A
C2056      H2061   1.084       .  S
C2057      C2058   1.414       .  A
C2058      N2059   1.431       .  S
N2059      O2064   1.261       .  A
N2062      O2066   1.262       .  A
N2062      O2065   1.262       .  A
C2067      C2068   1.406       .  A
C2067      C2072   1.404       .  A
C2067      H2074   1.084       .  S
C2068      C2069   1.418       .  A
C2069      C2070   1.392       .  A
C2070      C2071   1.404       .  A
C2070      H2075   1.084       .  S
C2071      C3564   1.485   1_455  S
C2071      C2072   1.415       .  A
C2072      N2073   1.431       .  S
N2073      O2077   1.262       .  A
N2073      O2078   1.262       .  A
N2076      O2080   1.262       .  A
N2076      O2079   1.262       .  A
C2081      C2082   1.408       .  A
C2081      C2086   1.399       .  A
C2081      H2088   1.083       .  S
C2082      C2083   1.418       .  A
C2083      C2084   1.405       .  A
C2083      N2090   1.429       .  S
C2084      C2085   1.401       .  A
C2084      H4393   1.083       .  S
C2085      C2086   1.403       .  A
C2086      N2087   1.428       .  S
N2087      O2091   1.262       .  A
N2087      O2092   1.261   1_455  A
H2089      C4388   1.082       .  S
N2090      O4398   1.262       .  A
N2090      O4397   1.262       .  A
O2093      N4394   1.263       .  A
O2094      N4394   1.262       .  A
C2095      C2096   1.406       .  A
C2095      C2100   1.406       .  A
C2095      H2102   1.084       .  S
C2096      C2097   1.417       .  A
C2097      C2098   1.405       .  A
C2097      N2104   1.429       .  S
C2098      C2099   1.404       .  A
C2098      H2103   1.083       .  S
C2099      C2100   1.419       .  A
N2101      O2105   1.261       .  A
N2101      O2106   1.262       .  A
N2104      O2108   1.262       .  A
N2104      O2107   1.262       .  A
C2109      C2110   1.410       .  A
C2109      C2114   1.407       .  A
C2109      H4420   1.083       .  S
C2110      C3520   1.484       .  S
C2110      C2111   1.415       .  A
C2111      C2112   1.390       .  A
C2111      N2118   1.434       .  S
C2112      C2113   1.406       .  A
C2112      H2117   1.084       .  S
C2113      C2114   1.413       .  A
C2114      N2115   1.436       .  S
N2115      O2119   1.262       .  A
N2115      O2120   1.263       .  A
H2116      C4413   1.083       .  S
N2118      O2122   1.263       .  A
N2118      O2121   1.262       .  A
C2123      C2124   1.408   1_545  A
C2123      H2130   1.085       .  S
C2124      C2125   1.412       .  A
C2125      N2132   1.437       .  S
C2126      C2127   1.404       .  A
C2126      H2131   1.082       .  S
C2127      C2128   1.404       .  A
C2128      N2129   1.430       .  S
N2129      O2133   1.262       .  A
N2129      O2134   1.261       .  A
N2132      O2136   1.262       .  A
N2132      O2135   1.263       .  A
C2137      C2138   1.401       .  A
C2137      C4446   1.408       .  A
C2137      H2144   1.084       .  S
C2138      C2139   1.409       .  A
C2139      C4444   1.409   1_455  A
C2139      N2146   1.430   1_455  S
C2140      C4443   1.411       .  A
C2140      C2141   1.404       .  A
C2140      H2145   1.083       .  S
C2141      C2142   1.416       .  A
C2142      C4441   1.408       .  A
C2142      N2143   1.439       .  S
N2143      O4451   1.263       .  A
N2143      O2148   1.262       .  A
N2146      O2150   1.261   1_655  A
N2146      O2149   1.261       .  A
O2147      N4447   1.263       .  A
C2151      C2152   1.402       .  A
C2151      C2156   1.400       .  A
C2151      H2158   1.084       .  S
C2152      C2153   1.411       .  A
C2153      C2154   1.403       .  A
C2153      N2160   1.429       .  S
C2154      C2155   1.405       .  A
C2154      H2159   1.084       .  S
C2155      C2156   1.414       .  A
C2156      N2157   1.432       .  S
N2157      O2161   1.262       .  A
N2157      O2162   1.262       .  A
N2160      O2164   1.262       .  A
N2160      O2163   1.262       .  A
C2165      C2166   1.404       .  A
C2165      C2170   1.398       .  A
C2165      H2172   1.084       .  S
C2166      C2167   1.416       .  A
C2167      C2168   1.407       .  A
C2167      N2174   1.429       .  S
C2168      C2169   1.407       .  A
C2168      H4477   1.084       .  S
C2169      C2170   1.417       .  A
C2170      N2171   1.431       .  S
N2171      O2175   1.262       .  A
N2171      O2176   1.262   1_455  A
H2173      C4472   1.084       .  S
N2174      O4482   1.262       .  A
N2174      O2177   1.262       .  A
O2178      N4478   1.262       .  A
C2179      C2180   1.397       .  A
C2179      C2184   1.389       .  A
C2179      H2186   1.085       .  S
C2180      C2181   1.413       .  A
C2181      C2182   1.413       .  A
C2182      C2183   1.407       .  A
C2182      H4491   1.083       .  S
C2183      C3480   1.481       .  S
C2183      C2184   1.416       .  A
C2184      N2185   1.431       .  S
N2185      O2189   1.262       .  A
N2185      O2190   1.260       .  A
H2187      C4486   1.083       .  S
N2188      O2192   1.262       .  A
N2188      O2191   1.262       .  A
C2193      C2194   1.404       .  A
C2193      C2198   1.388       .  A
C2193      H2200   1.084       .  S
C2194      C2195   1.415       .  A
C2195      C2196   1.408       .  A
C2195      N2202   1.428       .  S
C2196      C2197   1.404       .  A
C2197      C2198   1.412       .  A
C2198      N2199   1.431       .  S
N2199      O2203   1.262       .  A
N2199      O2204   1.260       .  A
N2202      O2206   1.261       .  A
N2202      O2205   1.262       .  A
C2207      C2208   1.402       .  A
C2207      C2212   1.402       .  A
C2207      H2214   1.084       .  S
C2208      C2209   1.415       .  A
C2209      C2210   1.413       .  A
C2209      N2216   1.434       .  S
C2210      C2211   1.405       .  A
C2210      H2215   1.083       .  S
C2211      C2212   1.412       .  A
C2212      N2213   1.430       .  S
N2213      O2217   1.262       .  A
N2213      O2218   1.261       .  A
N2216      O2220   1.262       .  A
N2216      O2219   1.262       .  A
C2221      C2222   1.410       .  A
C2221      C2226   1.411       .  A
C2221      H4532   1.083       .  S
C2222      C2223   1.416       .  A
C2223      C2224   1.402       .  A
C2223      N2230   1.432       .  S
C2224      C2225   1.407       .  A
C2224      H2229   1.084       .  S
C2225      C2226   1.415       .  A
C2226      N4531   1.431       .  S
N2227      C4530   1.429       .  S
N2227      O2231   1.261   1_655  A
N2227      O4536   1.262       .  A
H2228      C4525   1.083   1_455  S
N2230      O2234   1.262       .  A
N2230      O2233   1.262       .  A
O2232      N4531   1.262       .  A
C2235      C2236   1.397       .  A
C2235      C2240   1.400       .  A
C2235      H2242   1.084       .  S
C2236      C2237   1.405       .  A
C2237      C2238   1.404       .  A
C2238      C2239   1.410       .  A
C2239      C2240   1.420       .  A
C2240      N2241   1.430       .  S
N2241      O2245   1.262       .  A
N2241      O2246   1.262       .  A
N2244      O2248   1.262   1_545  A
N2244      O2247   1.261       .  A
C2249      C2250   1.408       .  A
C2249      C2254   1.404       .  A
C2250      C2251   1.416       .  A
C2251      C2252   1.396       .  A
C2251      N2258   1.433       .  S
C2252      C2253   1.399       .  A
C2252      H2257   1.084       .  S
C2253      C2254   1.406       .  A
C2254      N2255   1.428       .  S
N2255      O2259   1.261       .  A
N2255      O2260   1.261       .  A
N2258      O2262   1.263       .  A
N2258      O2261   1.262       .  A
C2263      C2264   1.395       .  A
C2263      C2268   1.399       .  A
C2263      H2270   1.085       .  S
C2264      C2265   1.413       .  A
C2265      C4570   1.408   1_455  A
C2265      N2272   1.433   1_455  S
C2266      C4569   1.413       .  A
C2266      C2267   1.406       .  A
C2266      H2271   1.084       .  S
C2267      C4572   1.413       .  A
C2268      C4571   1.420   1_455  A
C2268      N4573   1.432       .  S
N2269      C4572   1.429       .  S
N2269      O4577   1.261       .  A
N2269      O2274   1.262       .  A
N2272      O4580   1.262       .  A
N2272      O2275   1.262       .  A
O2273      N4573   1.261       .  A
O2276      N4576   1.262       .  A
C2277      C2282   1.414   1_545  A
C2277      H2284   1.081   1_545  S
C2278      C2279   1.407       .  A
C2279      C2280   1.406       .  A
C2279      N2286   1.432       .  S
C2280      H2285   1.084       .  S
C2281      C2282   1.412       .  A
C2282      N2283   1.429       .  S
N2283      O2287   1.262       .  A
N2283      O2288   1.262       .  A
N2286      O2290   1.261       .  A
N2286      O2289   1.262       .  A
C2291      C2292   1.401       .  A
C2291      C2296   1.390       .  A
C2291      H4602   1.085   1_455  S
C2292      C3458   1.477   1_455  S
C2292      C2293   1.419       .  A
C2293      C2294   1.415       .  A
C2293      N2300   1.439       .  S
C2294      C2295   1.405       .  A
C2294      H2299   1.083       .  S
C2295      C2296   1.406       .  A
C2296      N2297   1.431       .  S
N2297      O2301   1.262       .  A
N2297      O2302   1.261       .  A
H2298      C4595   1.085       .  S
N2300      O2304   1.262       .  A
N2300      O2303   1.263       .  A
O2305      C2320   1.258       .  A
O2305     Al2313   1.920       .  S
C2306      O2316   1.259       .  A
C2306      O2307   1.260       .  A
O2307     Al2309   1.903       .  S
O2308      C2310   1.256       .  A
O2308     Al2309   1.858       .  S
Al2309     O2317   1.872       .  S
Al2309     O2319   1.913       .  S
Al2309     O2318   1.765       .  S
C2310      O2323   1.275       .  A
C2310      C3419   1.480       .  S
O2311      C2321   1.261       .  A
O2311     Al2313   1.894       .  S
O2312      C2325   1.258       .  A
O2312     Al2322   1.879       .  S
Al2313     O2326   1.930       .  S
Al2313     O2323   1.973       .  S
Al2313     O2318   1.778       .  S
O2314      C2321   1.267       .  A
O2314     Al2322   1.926       .  S
O2315      C2324   1.272       .  A
O2315     Al2322   1.957       .  S
O2316     Al2322   1.911       .  S
O2317      C2324   1.258       .  A
O2318     Al2322   1.783       .  S
O2319      C2320   1.258       .  A
C2320      C3430   1.474       .  S
C2321      C3377   1.482       .  S
C2324      C4554   1.486   1_545  S
C2325      O2326   1.266       .  A
C2325      C3388   1.475       .  S
O2327      C2342   1.264       .  A
O2327     Al2335   1.936       .  S
C2328      O2338   1.258       .  A
C2328      O2329   1.256       .  A
O2329     Al2331   1.893       .  S
O2330      C2332   1.260       .  A
O2330     Al2331   1.880       .  S
Al2331     O2339   1.869       .  S
Al2331     O2341   1.910       .  S
Al2331     O2340   1.763       .  S
C2332      O2345   1.272       .  A
C2332      C3416   1.470       .  S
O2333      C2343   1.264       .  A
O2333     Al2335   1.884       .  S
O2334      C2347   1.256       .  A
O2334     Al2344   1.877       .  S
Al2335     O2348   1.919       .  S
Al2335     O2345   1.957       .  S
Al2335     O2340   1.780       .  S
O2336      C2343   1.269       .  A
O2336     Al2344   1.930       .  S
O2337      C2346   1.271       .  A
O2337     Al2344   1.947       .  S
O2338     Al2344   1.915       .  S
O2339      C2346   1.262       .  A
O2340     Al2344   1.780       .  S
O2341      C2342   1.261       .  A
C2342      C3360   1.479       .  S
C2343      C3318   1.490       .  S
C2346      C3346   1.484       .  S
C2347      O2348   1.261       .  A
C2347      C3304   1.474       .  S
O2349      C2364   1.263       .  A
O2349     Al2357   1.935       .  S
C2350      O2360   1.258       .  A
C2350      O2351   1.259       .  A
C2350      C4501   1.461       .  S
O2351     Al2353   1.894       .  S
O2352      C2354   1.258       .  A
O2352     Al2353   1.858       .  S
Al2353     O2361   1.881       .  S
Al2353     O2363   1.906       .  S
Al2353     O2362   1.772       .  S
C2354      O2367   1.272       .  A
C2354      C3276   1.491       .  S
O2355      C2365   1.266       .  A
O2355     Al2357   1.916       .  S
O2356      C2369   1.258       .  A
O2356     Al2366   1.877       .  S
Al2357     O2370   1.938       .  S
Al2357     O2367   1.970       .  S
Al2357     O2362   1.781       .  S
O2358      C2365   1.260       .  A
O2358     Al2366   1.911       .  S
O2359      C2368   1.269       .  A
O2359     Al2366   1.939       .  S
O2360     Al2366   1.905       .  S
O2361      C2368   1.260       .  A
O2362     Al2366   1.784       .  S
O2363      C2364   1.257       .  A
C2364      C3290   1.483       .  S
C2365      C3248   1.498       .  S
C2369      O2370   1.268       .  A
C2369      C3234   1.471       .  S
O2371      C2386   1.281       .  A
O2371     Al2379   2.002       .  S
C2372      O2382   1.275       .  A
C2372      O2373   1.254       .  A
C2372      C4372   1.486   1_545  S
O2373     Al2375   1.861       .  S
O2374      C2376   1.260       .  A
O2374     Al2375   1.925       .  S
Al2375     O2383   1.923       .  S
Al2375     O2385   1.854       .  S
Al2375     O2384   1.762       .  S
C2376      O2389   1.261       .  A
C2376      C3279   1.480       .  S
O2377      C2387   1.272       .  A
O2377     Al2379   1.965       .  S
O2378      C2391   1.270       .  A
O2378     Al2388   1.946       .  S
Al2379     O2392   1.893       .  S
Al2379     O2389   1.926       .  S
Al2379     O2384   1.771       .  S
O2380      C2387   1.255       .  A
O2380     Al2388   1.863       .  S
O2381      C2390   1.258       .  A
O2381     Al2388   1.907       .  S
O2382     Al2388   1.971       .  S
O2383      C2390   1.264       .  A
O2384     Al2388   1.774       .  S
O2385      C2386   1.255       .  A
C2386      C3363   1.492       .  S
C2387      C3209   1.484       .  S
C2390      C3447   1.470       .  S
C2391      O2392   1.263       .  A
C2391      C3195   1.485       .  S
O2393      C2408   1.262       .  A
O2393     Al2401   1.934       .  S
C2394      O2404   1.259       .  A
C2394      O2395   1.259       .  A
C2394      C3405   1.472       .  S
O2395     Al2397   1.904       .  S
O2396      C2398   1.256       .  A
O2396     Al2397   1.861       .  S
Al2397     O2405   1.872       .  S
Al2397     O2407   1.914       .  S
Al2397     O2406   1.776       .  S
C2398      O2411   1.274       .  A
C2398      C3178   1.480       .  S
O2399      C2409   1.264       .  A
O2399     Al2401   1.901       .  S
O2400      C2413   1.256       .  A
O2400     Al2410   1.879       .  S
Al2401     O2414   1.944       .  S
Al2401     O2411   1.974       .  S
Al2401     O2406   1.783       .  S
O2402      C2409   1.267       .  A
O2402     Al2410   1.931       .  S
O2403      C2412   1.268       .  A
O2403     Al2410   1.941       .  S
O2404     Al2410   1.905       .  S
O2405      C2412   1.260       .  A
O2406     Al2410   1.781       .  S
O2407      C2408   1.258       .  A
C2408      C3293   1.487       .  S
C2409      C3150   1.492       .  S
C2413      O2414   1.268       .  A
C2413      C3164   1.491       .  S
O2415      C2430   1.279       .  A
O2415     Al2423   1.992       .  S
C2416      O2426   1.273       .  A
C2416      O2417   1.261       .  A
C2416      C3265   1.488       .  S
O2417     Al2419   1.862       .  S
O2418      C2420   1.257       .  A
O2418     Al2419   1.912       .  S
Al2419     O2427   1.892       .  S
Al2419     O2429   1.848       .  S
Al2419     O2428   1.772       .  S
C2420      O2433   1.260       .  A
C2420      C3181   1.481       .  S
O2421      C2431   1.269       .  A
O2421     Al2423   1.946       .  S
O2422      C2435   1.265       .  A
O2422     Al2432   1.921       .  S
Al2423     O2436   1.892       .  S
Al2423     O2433   1.932       .  S
Al2423     O2428   1.778       .  S
O2424      C2431   1.261       .  A
O2424     Al2432   1.888       .  S
O2425      C2434   1.259       .  A
O2425     Al2432   1.917       .  S
O2426     Al2432   1.955       .  S
O2427      C2434   1.258       .  A
O2428     Al2432   1.782       .  S
O2429      C2430   1.255       .  A
C2430      C3433   1.487       .  S
C2431      C3122   1.494       .  S
C2434      C4484   1.477       .  S
C2435      O2436   1.260       .  A
C2435      C3136   1.485       .  S
O2437      C3604   1.275       .  A
O2437     Al2445   1.977   1_565  S
C2438      O2448   1.273       .  A
C2438      O2439   1.259       .  A
C2438      C3094   1.492       .  S
O2439     Al2441   1.870       .  S
O2440      C2442   1.262       .  A
O2440     Al2441   1.925       .  S
Al2441     O2449   1.917       .  S
Al2441     O2451   1.882       .  S
Al2441     O2450   1.771       .  S
C2442      O2455   1.261       .  A
C2442      C3108   1.478       .  S
O2443      C2453   1.265       .  A
O2443     Al2445   1.940       .  S
O2444      C3609   1.271       .  A
O2444     Al2454   1.946       .  S
Al2445     O2458   1.882       .  S
Al2445     O3607   1.918   1_545  S
Al2445     O3602   1.780   1_545  S
O2446      C3605   1.260       .  A
O2446     Al2454   1.894       .  S
O2447      C2456   1.261       .  A
O2447     Al2454   1.923       .  S
O2448     Al2454   1.961       .  S
O2449      C2456   1.261       .  A
O2450     Al3597   1.780       .  S
O2450     Al2454   1.777       .  S
O2451      C2452   1.260       .  A
C2452      O3589   1.275       .  A
C2452      C3080   1.486       .  S
C2453      O3598   1.259   1_545  A
C2453      C3206   1.492       .  S
O2455     Al3597   1.921       .  S
C2456      C3069   1.481       .  S
C2457      O3596   1.272   1_545  A
C2457      O2458   1.262       .  A
C2457      C3391   1.488       .  S
O2459      C2474   1.259       .  A
O2459     Al2467   1.927       .  S
C2460      O2470   1.263       .  A
C2460      O2461   1.257       .  A
C2460      C3052   1.478       .  S
O2461     Al2463   1.889       .  S
O2462      C2464   1.257       .  A
O2462     Al2463   1.869       .  S
Al2463     O2471   1.877       .  S
Al2463     O2473   1.899       .  S
Al2463     O2472   1.775       .  S
C2464      O2477   1.271       .  A
C2464      C3111   1.476       .  S
O2465      C2475   1.263       .  A
O2465     Al2467   1.909       .  S
O2466      C2479   1.261       .  A
O2466     Al2476   1.892       .  S
Al2467     O2480   1.912       .  S
Al2467     O2477   1.961       .  S
Al2467     O2472   1.786       .  S
O2468      C2475   1.265       .  A
O2468     Al2476   1.920       .  S
O2469      C2478   1.269       .  A
O2469     Al2476   1.951       .  S
O2470     Al2476   1.924       .  S
O2471      C2478   1.261       .  A
O2472     Al2476   1.792       .  S
O2473      C2474   1.254       .  A
C2474      C3038   1.480       .  S
C2475      C3010   1.499       .  S
C2478      C3027   1.492       .  S
C2479      O2480   1.264       .  A
C2479      C2996   1.473       .  S
O2481      C2496   1.261       .  A
C2482      O2492   1.263       .  A
C2482      O2483   1.254       .  A
C2482      C2968   1.482       .  S
O2483     Al2485   1.890       .  S
O2484      C2486   1.258       .  A
O2484     Al2485   1.862       .  S
Al2485     O2493   1.879       .  S
Al2485     O2495   1.904       .  S
Al2485     O2494   1.771       .  S
C2486      O2499   1.273       .  A
C2486      C2985   1.472       .  S
O2487      C2497   1.260       .  A
O2487     Al2489   1.890       .  S
O2488     Al2498   1.892       .  S
Al2489     O2502   1.928       .  S
O2490     Al2498   1.932       .  S
O2491      C2500   1.273       .  A
O2491     Al2498   1.954       .  S
O2492     Al2498   1.927       .  S
O2493      C2500   1.263       .  A
O2494     Al2498   1.778       .  S
O2495      C2496   1.255       .  A
C2496      C3041   1.479       .  S
C2497      C3374   1.492       .  S
C2500      C3097   1.488       .  S
C2501      O2502   1.265   1_455  A
C2501      C3167   1.485   1_455  S
O2503      C2518   1.260       .  A
O2503     Al2511   1.935       .  S
C2504      O2514   1.264       .  A
C2504      O2505   1.251       .  A
C2504      C3024   1.481       .  S
O2505     Al2507   1.879       .  S
O2506      C2508   1.261       .  A
O2506     Al2507   1.874       .  S
Al2507     O2515   1.888       .  S
Al2507     O2517   1.900       .  S
Al2507     O2516   1.778       .  S
C2508      O2521   1.272       .  A
C2508      C2982   1.474       .  S
O2509      C2519   1.263       .  A
O2509     Al2511   1.905       .  S
O2510      C2523   1.262       .  A
O2510     Al2520   1.905       .  S
Al2511     O2524   1.904       .  S
Al2511     O2521   1.958       .  S
Al2511     O2516   1.781       .  S
O2512      C2519   1.264       .  A
O2512     Al2520   1.911       .  S
O2513      C2522   1.270       .  A
O2513     Al2520   1.934       .  S
O2514     Al2520   1.938       .  S
O2515      C2522   1.267       .  A
O2516     Al2520   1.786       .  S
O2517      C2518   1.251       .  A
C2518      C2954   1.477       .  S
C2519      C2912   1.494       .  S
C2522      C2943   1.487       .  S
C2523      O2524   1.261       .  A
C2523      C2926   1.483       .  S
O2525      C2540   1.262       .  A
O2525     Al2533   1.940       .  S
C2526      O2536   1.263       .  A
C2526      O2527   1.255       .  A
C2526      C2940   1.480       .  S
O2527     Al2529   1.885       .  S
O2528      C2530   1.258       .  A
O2528     Al2529   1.870       .  S
Al2529     O2537   1.873       .  S
Al2529     O2539   1.899       .  S
Al2529     O2538   1.771       .  S
C2530      O2543   1.270       .  A
C2530      C2898   1.470       .  S
O2531      C2541   1.264       .  A
O2531     Al2533   1.907       .  S
O2532      C2545   1.261       .  A
O2532     Al2542   1.897       .  S
Al2533     O2546   1.905       .  S
Al2533     O2543   1.957       .  S
Al2533     O2538   1.781       .  S
O2534      C2541   1.266       .  A
O2534     Al2542   1.924       .  S
O2535      C2544   1.270       .  A
O2535     Al2542   1.947       .  S
O2536     Al2542   1.929       .  S
O2537      C2544   1.262       .  A
O2538     Al2542   1.788       .  S
O2539      C2540   1.254       .  A
C2540      C3083   1.480       .  S
C2541      C2884   1.494       .  S
C2544      C3055   1.487       .  S
C2545      O2546   1.262       .  A
C2545      C2873   1.482       .  S
O2547      C2562   1.261       .  A
O2547     Al2555   1.930       .  S
C2548      O2558   1.260       .  A
C2548      O2549   1.257       .  A
C2548      C3066   1.477       .  S
O2549     Al2551   1.899       .  S
O2550      C2552   1.260       .  A
O2550     Al2551   1.870       .  S
Al2551     O2559   1.885       .  S
Al2551     O2561   1.919       .  S
Al2551     O2560   1.774       .  S
C2552      O2565   1.271       .  A
C2552      C2901   1.480       .  S
O2553      C2563   1.265       .  A
O2553     Al2555   1.908       .  S
O2554      C2567   1.261       .  A
O2554     Al2564   1.896       .  S
Al2555     O2568   1.924       .  S
Al2555     O2565   1.960       .  S
Al2555     O2560   1.784       .  S
O2556      C2563   1.266       .  A
O2556     Al2564   1.923       .  S
O2557      C2566   1.271       .  A
O2557     Al2564   1.945       .  S
O2558     Al2564   1.924       .  S
O2559      C2566   1.265       .  A
O2560     Al2564   1.778       .  S
O2561      C2562   1.259       .  A
C2562      C2957   1.482       .  S
C2563      C3153   1.498       .  S
C2566      C2971   1.491       .  S
C2567      O2568   1.263       .  A
C2567      C3192   1.493       .  S
O2569      C2584   1.267       .  A
O2569     Al2577   1.934       .  S
C2570      O2580   1.261       .  A
C2570      O2571   1.258       .  A
C2570      C2845   1.470       .  S
O2571     Al2573   1.894       .  S
O2572      C2574   1.256       .  A
O2572     Al2573   1.884       .  S
Al2573     O2581   1.892       .  S
Al2573     O2583   1.912       .  S
Al2573     O2582   1.776       .  S
C2574      O2587   1.264       .  A
C2574      C2856   1.484       .  S
O2575      C2585   1.266       .  A
O2575     Al2577   1.916       .  S
O2576      C2589   1.259       .  A
O2576     Al2586   1.886       .  S
Al2577     O2590   1.939       .  S
Al2577     O2587   1.946       .  S
Al2577     O2582   1.795       .  S
O2578      C2585   1.263       .  A
O2578     Al2586   1.904       .  S
O2579      C2588   1.260       .  A
O2579     Al2586   1.923       .  S
O2580     Al2586   1.913       .  S
O2581      C2588   1.259       .  A
O2582     Al2586   1.792       .  S
O2583      C2584   1.262       .  A
C2584      C2828   1.486       .  S
C2585      C2915   1.484       .  S
C2588      C2817   1.469       .  S
C2589      O2590   1.265       .  A
C2589      C2870   1.484       .  S
O2591     Al2599   1.926       .  S
C2592      O2602   1.261       .  A
C2592      O2593   1.262       .  A
C2592      C2775   1.470       .  S
O2593     Al2595   1.897       .  S
O2594      C2596   1.257       .  A
O2594     Al2595   1.867       .  S
Al2595     O2603   1.888       .  S
Al2595     O2605   1.896       .  S
Al2595     O2604   1.772       .  S
C2596      C2859   1.480       .  S
O2597      C2607   1.258       .  A
O2597     Al2599   1.907       .  S
O2598     Al2608   1.870       .  S
Al2599     O2612   1.954       .  S
Al2599     O2609   1.963       .  S
O2600     Al2608   1.887       .  S
O2601      C2610   1.261       .  A
O2601     Al2608   1.923       .  S
O2602     Al2608   1.910       .  S
O2603      C2610   1.262       .  A
O2604     Al2608   1.791       .  S
O2605      C2606   1.255       .  A
C2606      C2800   1.482       .  S
C2607      C3321   1.481       .  S
C2610      C2789   1.472       .  S
C2611      O2612   1.276       .  A
C2611      C3237   1.487       .  S
O2613      C2628   1.258       .  A
O2613     Al2621   1.927       .  S
C2614      O2624   1.263       .  A
C2614      O2615   1.260       .  A
C2614      C2744   1.475       .  S
O2615     Al2617   1.896       .  S
O2616      C2618   1.260       .  A
O2616     Al2617   1.879       .  S
Al2617     O2625   1.889       .  S
Al2617     O2627   1.887       .  S
Al2617     O2626   1.775       .  S
C2618      O2631   1.270       .  A
C2618      C2758   1.481       .  S
O2619      C2629   1.260       .  A
O2619     Al2621   1.919       .  S
O2620      C2633   1.264       .  A
O2620     Al2630   1.888       .  S
Al2621     O2634   1.928       .  S
Al2621     O2631   1.951       .  S
Al2621     O2626   1.790       .  S
O2622      C2629   1.256       .  A
O2622     Al2630   1.893       .  S
O2623      C2632   1.263       .  A
O2623     Al2630   1.932       .  S
O2624     Al2630   1.921       .  S
O2625      C2632   1.261       .  A
O2626     Al2630   1.796       .  S
O2627      C2628   1.253       .  A
C2628      C2803   1.481       .  S
C2629      C2887   1.496       .  S
C2632      C2842   1.484       .  S
C2633      O2634   1.270       .  A
C2633      C2999   1.477       .  S
O2635      C2650   1.262       .  A
O2635     Al2643   1.941       .  S
C2636      O2646   1.258       .  A
C2636      O2637   1.254       .  A
C2636      C2814   1.465       .  S
O2637     Al2639   1.887       .  S
O2638      C2640   1.262       .  A
O2638     Al2639   1.882       .  S
Al2639     O2647   1.885       .  S
Al2639     O2649   1.904       .  S
Al2639     O2648   1.774       .  S
C2640      O2653   1.276       .  A
C2640      C2730   1.486       .  S
O2641      C2651   1.267       .  A
O2641     Al2643   1.922       .  S
O2642      C2655   1.257       .  A
O2642     Al2652   1.877       .  S
Al2643     O2656   1.930       .  S
Al2643     O2653   1.970       .  S
Al2643     O2648   1.780       .  S
O2644      C2651   1.265       .  A
O2644     Al2652   1.919       .  S
O2645      C2654   1.273       .  A
O2645     Al2652   1.948       .  S
O2646     Al2652   1.911       .  S
O2647      C2654   1.263       .  A
O2648     Al2652   1.784       .  S
O2649      C2650   1.254       .  A
C2650      C2716   1.482       .  S
C2651      C3013   1.503       .  S
C2654      C2747   1.489       .  S
C2655      O2656   1.265       .  A
C2655      C2929   1.474       .  S
O2657      C3824   1.270       .  A
O2657     Al2665   1.961       .  S
C2658      O2668   1.257       .  A
C2658      O2659   1.253       .  A
C2658      C2702   1.465       .  S
O2659     Al2661   1.877       .  S
O2660      C2662   1.258       .  A
O2660     Al2661   1.884       .  S
Al2661     O2669   1.867       .  S
Al2661     O2671   1.906       .  S
Al2661     O2670   1.768       .  S
C2662      O3827   1.272       .  A
C2662      C2733   1.477       .  S
O2663      C2673   1.262       .  A
O2663     Al2665   1.926       .  S
O2664      C3829   1.259   1_545  A
O2664     Al2674   1.892       .  S
Al2665     O2678   1.890       .  S
Al2665     O2675   1.924       .  S
Al2665     O3822   1.786       .  S
O2666      C3825   1.266   1_545  A
O2666     Al2674   1.911       .  S
O2667      C2676   1.270       .  A
O2667     Al2674   1.934       .  S
O2668     Al2674   1.914       .  S
O2669      C2676   1.259       .  A
O2670     Al3817   1.782   1_545  S
O2670     Al2674   1.783       .  S
O2671      C2672   1.259       .  A
C2672      O3809   1.266       .  A
C2672      C2831   1.482       .  S
C2673      O3818   1.256       .  A
C2673      C3251   1.478       .  S
O2675      C3814   1.264       .  A
C2676      C2772   1.483       .  S
C2677      O3816   1.270       .  A
C2677      O2678   1.264       .  A
C2677      C3139   1.492       .  S
O2679      C2694   1.262       .  A
O2679     Al2687   1.932       .  S
C2680      O2690   1.260       .  A
C2680      O2681   1.264       .  A
C2680      C2786   1.461       .  S
O2681     Al2683   1.913       .  S
O2682      C2684   1.259       .  A
O2682     Al2683   1.887       .  S
Al2683     O2691   1.900       .  S
Al2683     O2693   1.919       .  S
Al2683     O2692   1.775       .  S
C2684      O2697   1.270       .  A
C2684      C2761   1.489       .  S
O2685      C2695   1.265       .  A
O2685     Al2687   1.925       .  S
O2686      C2699   1.258       .  A
O2686     Al2696   1.863       .  S
Al2687     O2700   1.944       .  S
Al2687     O2697   1.961       .  S
Al2687     O2692   1.788       .  S
O2688      C2695   1.261       .  A
O2688     Al2696   1.914       .  S
O2689      C2698   1.262       .  A
O2689     Al2696   1.926       .  S
O2690     Al2696   1.895       .  S
O2691      C2698   1.260       .  A
O2692     Al2696   1.790       .  S
O2693      C2694   1.261       .  A
C2694      C2719   1.491       .  S
C2695      C3125   1.494       .  S
C2698      C2705   1.485       .  S
C2699      O2700   1.270       .  A
C2699      C3307   1.476       .  S
C2701      C2702   1.397       .  A
C2701      C2706   1.394       .  A
C2701      H2708   1.085       .  S
C2702      C2703   1.406       .  A
C2703      C2704   1.406       .  A
C2703      N2710   1.429       .  S
C2704      C2705   1.410       .  A
C2704      H2709   1.084       .  S
C2705      C2706   1.411       .  A
C2706      N2707   1.425       .  S
N2707      O2711   1.261       .  A
N2707      O2712   1.262       .  A
N2710      O2714   1.262       .  A
N2710      O2713   1.262       .  A
C2715      C2716   1.403       .  A
C2715      C2720   1.413       .  A
C2715      H2722   1.083       .  S
C2716      C2717   1.412       .  A
C2717      C2718   1.409       .  A
C2717      N2724   1.434       .  S
C2718      C2719   1.402       .  A
C2718      H2723   1.082       .  S
C2719      C2720   1.413       .  A
C2720      N2721   1.437       .  S
N2721      O2725   1.262       .  A
N2721      O2726   1.263       .  A
N2724      O2728   1.261       .  A
N2724      O2727   1.262       .  A
C2729      C2730   1.403       .  A
C2729      C2734   1.410       .  A
C2729      H2736   1.081       .  S
C2730      C2731   1.413       .  A
C2731      C2732   1.402       .  A
C2731      N2738   1.430       .  S
C2732      C2733   1.401       .  A
C2732      H3889   1.084       .  S
C2733      C2734   1.414       .  A
C2734      N2735   1.437       .  S
N2735      O2739   1.263       .  A
N2735      O2740   1.263       .  A
H2737      C3884   1.084       .  S
N2738      O3894   1.262       .  A
N2738      O3893   1.261       .  A
O2741      N3890   1.262       .  A
O2742      N3890   1.262       .  A
C2743      C2744   1.400       .  A
C2743      C2748   1.391       .  A
C2743      H2750   1.085       .  S
C2744      C2745   1.407       .  A
C2745      C2746   1.409       .  A
C2745      N2752   1.429   1_556  S
C2746      C2747   1.412       .  A
C2746      H2751   1.083       .  S
C2747      C2748   1.417       .  A
C2748      N2749   1.430       .  S
N2749      O2753   1.261       .  A
N2749      O2754   1.262       .  A
N2752      O2756   1.262       .  A
N2752      O2755   1.262       .  A
C2757      C2758   1.400       .  A
C2757      C2762   1.406       .  A
C2757      H2764   1.084       .  S
C2758      C2759   1.408       .  A
C2759      C2760   1.408       .  A
C2759      N2766   1.427       .  S
C2760      C2761   1.405       .  A
C2760      H2765   1.082       .  S
C2761      C2762   1.412       .  A
C2762      N2763   1.432       .  S
N2763      O2767   1.262       .  A
N2763      O2768   1.261       .  A
N2766      O2770   1.260       .  A
N2766      O2769   1.262       .  A
C2771      C2772   1.409       .  A
C2771      C2776   1.406       .  A
C2771      H2778   1.083       .  S
C2772      C2773   1.418       .  A
C2773      C2774   1.390       .  A
C2773      N2780   1.432       .  S
C2774      C2775   1.400       .  A
C2774      H2779   1.085       .  S
C2775      C2776   1.409       .  A
C2776      N2777   1.434       .  S
N2777      O2781   1.262       .  A
N2777      O2782   1.262       .  A
N2780      O2784   1.262       .  A
N2780      O2783   1.261       .  A
C2785      C2786   1.398       .  A
C2785      C2790   1.400       .  A
C2785      H2792   1.099       .  S
C2786      C2787   1.405       .  A
C2787      C2788   1.391       .  A
C2787      N2794   1.423       .  S
C2788      C2789   1.397       .  A
C2788      H2793   1.110       .  S
C2789      C2790   1.418       .  A
C2790      N2791   1.430       .  S
N2791      O2795   1.262       .  A
N2791      O2796   1.262       .  A
N2794      O2798   1.262       .  A
N2794      O2797   1.261       .  A
C2799      C2800   1.402       .  A
C2799      C2804   1.411       .  A
C2800      C2801   1.412       .  A
C2801      C2802   1.409       .  A
C2801      N2808   1.440       .  S
C2802      C2803   1.402       .  A
C2802      H2807   1.080       .  S
C2803      C2804   1.416       .  A
N2805      O2809   1.263       .  A
N2805      O2810   1.262       .  A
N2808      O2812   1.262       .  A
N2808      O2811   1.263       .  A
C2813      C2814   1.397       .  A
C2813      C2818   1.402       .  A
C2813      H2820   1.084       .  S
C2814      C2815   1.409       .  A
C2815      C2816   1.391       .  A
C2815      N2822   1.430       .  S
C2816      C2817   1.397       .  A
C2816      H2821   1.085       .  S
C2817      C2818   1.414       .  A
C2818      N2819   1.422       .  S
N2819      O2823   1.262   1_556  A
N2819      O2824   1.262       .  A
N2822      O2826   1.262       .  A
N2822      O2825   1.261       .  A
C2827      C2828   1.407       .  A
C2827      C2832   1.414       .  A
C2827      H2834   1.084       .  S
C2828      C2829   1.413       .  A
C2829      C2830   1.401       .  A
C2829      N2836   1.435       .  S
C2830      C2831   1.399       .  A
C2830      H3987   1.084       .  S
C2831      C2832   1.413       .  A
C2832      N2833   1.431       .  S
N2833      O2837   1.262       .  A
N2833      O2838   1.262       .  A
H2835      C3982   1.084       .  S
N2836      O3992   1.261       .  A
N2836      O2839   1.262       .  A
O2840      N3988   1.262       .  A
C2841      C2842   1.401       .  A
C2841      C2846   1.393       .  A
C2841      H2848   1.084       .  S
C2842      C2843   1.419       .  A
C2843      C2844   1.408       .  A
C2843      N2850   1.433   1_556  S
C2844      C2845   1.401       .  A
C2844      H2849   1.084       .  S
C2845      C2846   1.405       .  A
C2846      N2847   1.424       .  S
N2847      O2851   1.261       .  A
N2847      O2852   1.261       .  A
N2850      O2854   1.262       .  A
N2850      O2853   1.262       .  A
C2855      C2856   1.404       .  A
C2855      C2860   1.405       .  A
C2855      H2862   1.080       .  S
C2856      C2857   1.412       .  A
C2857      C2858   1.408       .  A
C2857      N2864   1.438       .  S
C2858      C2859   1.406       .  A
C2858      H2863   1.084       .  S
C2859      C2860   1.407       .  A
N2861      O2865   1.261       .  A
N2861      O2866   1.262       .  A
N2864      O2868   1.262       .  A
N2864      O2867   1.262       .  A
C2869      C4022   1.400       .  A
C2869      C2874   1.402       .  A
C2869      H2876   1.084       .  S
C2870      C4021   1.405       .  A
C2870      C2871   1.411       .  A
C2871      C2872   1.396   1_545  A
C2871      N2878   1.427       .  S
C2872      C4025   1.400   1_556  A
C2872      H2877   1.081       .  S
C2873      C4024   1.406       .  A
C2873      C2874   1.414   1_554  A
C2874      N2875   1.428       .  S
N2875      O2879   1.262       .  A
N2875      O2880   1.262       .  A
N2878      O2882   1.258       .  A
N2878      O2881   1.263   1_545  A
C2883      C2884   1.410   1_556  A
C2883      C2888   1.409       .  A
C2883      H2890   1.084       .  S
C2884      C2885   1.414       .  A
C2885      C2886   1.403       .  A
C2885      N2892   1.431       .  S
C2886      C2887   1.408   1_554  A
C2886      H2891   1.084       .  S
C2887      C2888   1.414       .  A
C2888      N2889   1.431       .  S
N2889      O2893   1.262       .  A
N2889      O2894   1.262       .  A
N2892      O2896   1.262       .  A
N2892      O2895   1.262       .  A
C2897      C2898   1.403       .  A
C2897      C2902   1.407       .  A
C2897      H2904   1.083       .  S
C2898      C2899   1.405       .  A
C2899      C2900   1.398       .  A
C2899      N2906   1.427       .  S
C2900      C2901   1.405       .  A
C2900      H2905   1.085       .  S
C2901      C2902   1.411       .  A
C2902      N2903   1.434       .  S
N2903      O2907   1.262       .  A
N2903      O2908   1.262       .  A
N2906      O2910   1.262       .  A
N2906      O2909   1.262       .  A
C2911      C2912   1.411   1_556  A
C2911      C2916   1.406       .  A
C2911      H2918   1.084       .  S
C2912      C2913   1.415       .  A
C2914      C2915   1.405   1_554  A
C2914      H2919   1.084       .  S
C2916      N2917   1.430       .  S
N2917      O2921   1.262       .  A
N2920      O2924   1.262       .  A
C2925      C2926   1.405   1_556  A
C2925      C2930   1.405       .  A
C2925      H2932   1.084       .  S
C2926      C2927   1.413       .  A
C2927      C2928   1.401       .  A
C2927      N2934   1.430       .  S
C2928      C2929   1.401   1_554  A
C2928      H2933   1.084       .  S
C2929      C2930   1.408       .  A
C2930      N2931   1.430       .  S
N2931      O2935   1.262       .  A
N2931      O2936   1.262       .  A
N2934      O2938   1.262       .  A
N2934      O2937   1.262       .  A
C2939      C2940   1.402       .  A
C2939      C2944   1.408       .  A
C2939      H2946   1.084       .  S
C2940      C2941   1.414       .  A
C2941      C2942   1.392       .  A
C2941      N2948   1.429       .  S
C2942      C2943   1.401       .  A
C2942      H2947   1.084       .  S
C2943      C2944   1.418       .  A
C2944      N2945   1.428       .  S
N2945      O2949   1.262   1_554  A
N2945      O2950   1.262   1_554  A
N2948      O2952   1.259       .  A
N2948      O2951   1.262       .  A
C2953      C2954   1.403       .  A
C2953      C2958   1.408       .  A
C2953      H2960   1.084       .  S
C2954      C2955   1.410       .  A
C2955      C2956   1.407       .  A
C2955      N2962   1.431       .  S
C2956      C2957   1.405       .  A
C2956      H2961   1.084       .  S
C2957      C2958   1.413       .  A
C2958      N2959   1.436       .  S
N2959      O2963   1.262       .  A
N2959      O2964   1.263       .  A
N2962      O2966   1.262       .  A
N2962      O2965   1.262       .  A
C2967      C2968   1.403       .  A
C2967      C2972   1.407       .  A
C2967      H2974   1.084       .  S
C2968      C2969   1.416       .  A
C2969      C2970   1.395       .  A
C2969      N2976   1.432       .  S
C2970      C2971   1.405       .  A
C2970      H2975   1.084       .  S
C2971      C2972   1.417       .  A
C2972      N2973   1.428       .  S
N2973      O2977   1.262       .  A
N2973      O2978   1.262       .  A
N2976      O2980   1.261       .  A
N2976      O2979   1.262       .  A
C2981      C2982   1.401       .  A
C2981      C2986   1.401       .  A
C2981      H2988   1.084       .  S
C2982      C2983   1.421       .  A
C2983      C2984   1.408       .  A
C2983      N2990   1.442       .  S
C2984      C2985   1.399       .  A
C2984      H2989   1.084       .  S
C2985      C2986   1.411       .  A
C2986      N2987   1.431       .  S
N2987      O2991   1.261       .  A
N2987      O2992   1.261       .  A
N2990      O2994   1.262       .  A
N2990      O2993   1.263       .  A
C2995      C2996   1.402       .  A
C2995      H3002   1.083       .  S
C2996      C2997   1.409   1_554  A
C2997      C2998   1.402       .  A
C2997      N3004   1.429       .  S
C2998      H3003   1.083       .  S
C2999      C3000   1.410   1_556  A
C3000      N3001   1.430       .  S
N3001      O3005   1.262       .  A
N3001      O3006   1.262       .  A
N3004      O3008   1.262       .  A
N3004      O3007   1.262       .  A
C3009      C3010   1.410   1_556  A
C3009      C4166   1.406       .  A
C3009      H3016   1.084       .  S
C3010      C3011   1.416       .  A
C3011      C4164   1.405       .  A
C3011      N3018   1.430       .  S
C3012      C4163   1.408       .  A
C3012      C3013   1.411   1_554  A
C3012      H3017   1.083       .  S
C3013      C3014   1.417   1_545  A
C3014      C4161   1.409       .  A
C3014      N3015   1.431       .  S
N3015      O4171   1.262   1_565  A
N3015      O3020   1.262       .  A
N3018      O3022   1.262       .  A
N3018      O3021   1.262       .  A
O3019      N4167   1.262       .  A
C3023      C3024   1.405       .  A
C3023      C3028   1.411       .  A
C3023      H3030   1.084       .  S
C3024      C3025   1.415       .  A
C3025      C3026   1.391       .  A
C3025      N3032   1.431       .  S
C3026      C3027   1.403       .  A
C3026      H3031   1.084       .  S
C3027      C3028   1.417       .  A
C3028      N3029   1.428       .  S
N3029      O3033   1.262   1_554  A
N3029      O3034   1.262   1_554  A
N3032      O3036   1.261       .  A
N3032      O3035   1.262       .  A
C3037      C3038   1.403       .  A
C3037      C3042   1.409       .  A
C3037      H3044   1.083       .  S
C3038      C3039   1.414       .  A
C3039      C3040   1.406       .  A
C3039      N3046   1.437       .  S
C3040      C3041   1.402       .  A
C3041      C3042   1.415       .  A
C3042      N3043   1.437       .  S
N3043      O3047   1.263       .  A
N3043      O3048   1.262       .  A
N3046      O3049   1.262       .  A
C3051      C3052   1.404       .  A
C3051      C3056   1.410       .  A
C3051      H3058   1.084       .  S
C3052      C3053   1.411       .  A
C3053      C3054   1.388       .  A
C3053      N3060   1.429       .  S
C3054      C3055   1.402       .  A
C3054      H3059   1.084       .  S
C3055      C3056   1.416       .  A
C3056      N3057   1.428       .  S
N3057      O3061   1.262   1_554  A
N3057      O3062   1.262   1_554  A
N3060      O3064   1.259       .  A
N3060      O3063   1.262       .  A
C3065      C3066   1.400       .  A
C3065      C3070   1.396       .  A
C3065      H3072   1.085       .  S
C3066      C3067   1.414       .  A
C3067      C3068   1.414       .  A
C3067      N3074   1.434       .  S
C3068      C3069   1.406       .  A
C3068      H3073   1.084       .  S
C3069      C3070   1.411       .  A
C3070      N3071   1.432       .  S
N3071      O3075   1.263       .  A
N3071      O3076   1.261       .  A
N3074      O3078   1.262       .  A
N3074      O3077   1.262       .  A
C3079      C3080   1.403       .  A
C3079      C3084   1.411       .  A
C3079      H3086   1.080       .  S
C3080      C3081   1.410       .  A
C3081      C3082   1.408       .  A
C3081      N3088   1.433       .  S
C3082      C3083   1.405       .  A
C3082      H3087   1.084       .  S
C3083      C3084   1.415       .  A
C3084      N3085   1.443       .  S
N3085      O3089   1.263       .  A
N3085      O3090   1.263       .  A
N3088      O3092   1.262       .  A
N3088      O3091   1.261       .  A
C3093      C3094   1.407       .  A
C3093      C3098   1.391       .  A
C3093      H3100   1.084       .  S
C3094      C3095   1.417       .  A
C3095      C3096   1.413       .  A
C3095      N3102   1.436       .  S
C3096      C3097   1.408       .  A
C3096      H3101   1.083       .  S
C3097      C3098   1.413       .  A
C3098      N3099   1.431       .  S
N3099      O3103   1.261       .  A
N3099      O3104   1.262       .  A
N3102      O3106   1.263       .  A
N3102      O3105   1.263       .  A
C3107      C3108   1.403       .  A
C3107      C3112   1.404       .  A
C3107      H3114   1.084       .  S
C3108      C3109   1.410       .  A
C3109      C3110   1.410       .  A
C3109      N4268   1.438       .  S
C3110      C3111   1.405       .  A
C3110      H3115   1.084       .  S
C3111      C3112   1.412       .  A
C3112      N3113   1.434       .  S
N3113      O3117   1.261       .  A
N3113      O3118   1.262       .  A
N3116      C4261   1.439   1_545  S
N3116      O3120   1.263       .  A
N3116      O3119   1.263       .  A
C3121      C3122   1.410       .  A
C3121      C3126   1.406       .  A
C3121      H3128   1.084       .  S
C3122      C3123   1.414       .  A
C3123      C3124   1.409       .  A
C3123      N3130   1.433       .  S
C3124      C3125   1.409       .  A
C3124      H3129   1.084       .  S
C3125      C3126   1.410       .  A
C3126      N3127   1.430       .  S
N3127      O3131   1.262       .  A
N3127      O3132   1.262       .  A
N3130      O3134   1.262       .  A
N3130      O3133   1.262       .  A
C3135      C3136   1.403       .  A
C3135      C3140   1.402       .  A
C3135      H3142   1.084       .  S
C3136      C3137   1.413       .  A
C3137      C3138   1.402       .  A
C3137      N3144   1.430       .  S
C3138      C3139   1.407       .  A
C3138      H4295   1.083       .  S
C3139      C3140   1.417       .  A
C3140      N3141   1.430       .  S
N3141      O3145   1.262       .  A
N3141      O3146   1.262       .  A
H3143      C4290   1.084   1_545  S
N3144      O4300   1.261       .  A
N3144      O4299   1.262       .  A
O3147      N4296   1.262       .  A
O3148      N4296   1.261   1_545  A
C3149      C3150   1.405       .  A
C3149      C3154   1.404       .  A
C3149      H3156   1.084       .  S
C3150      C3151   1.413       .  A
C3151      C3152   1.406       .  A
C3151      N3158   1.429       .  S
C3152      C3153   1.408       .  A
C3152      H3157   1.084       .  S
C3153      C3154   1.417       .  A
C3154      N3155   1.429       .  S
N3155      O3159   1.262       .  A
N3155      O3160   1.262       .  A
N3158      O3162   1.262       .  A
N3158      O3161   1.262       .  A
C3163      C3164   1.407       .  A
C3163      C3168   1.407       .  A
C3163      H3170   1.084       .  S
C3164      C3165   1.419       .  A
C3165      C3166   1.400   1_655  A
C3166      C3167   1.401   1_455  A
C3167      C3168   1.413       .  A
C3168      N3169   1.430       .  S
N3169      O3173   1.262       .  A
N3169      O3174   1.262       .  A
N3172      O3176   1.261       .  A
N3172      O3175   1.262       .  A
C3177      C3178   1.402       .  A
C3177      C3182   1.410       .  A
C3177      H3184   1.084       .  S
C3178      C3179   1.416       .  A
C3179      C3180   1.404       .  A
C3179      N3186   1.436       .  S
C3180      C3181   1.402       .  A
C3180      H3185   1.084       .  S
C3181      C3182   1.416       .  A
C3182      N3183   1.433       .  S
N3183      O3187   1.260       .  A
N3183      O3188   1.262       .  A
N3186      O3190   1.261       .  A
N3186      O3189   1.262       .  A
C3191      C3192   1.405       .  A
C3191      C3196   1.399       .  A
C3191      H3198   1.084       .  S
C3192      C3193   1.418       .  A
C3193      C3194   1.410       .  A
C3193      N3200   1.429       .  S
C3194      C3195   1.404       .  A
C3194      H3199   1.084       .  S
C3195      C3196   1.408       .  A
C3196      N3197   1.426       .  S
N3197      O3201   1.262       .  A
N3197      O3202   1.260       .  A
N3200      O3204   1.262       .  A
N3200      O3203   1.262       .  A
C3205      C3206   1.404       .  A
C3205      C3210   1.396       .  A
C3205      H4364   1.083   1_545  S
C3206      C3207   1.417       .  A
C3207      C3208   1.411       .  A
C3207      N3214   1.429       .  S
C3208      C3209   1.405       .  A
C3208      H3213   1.084       .  S
C3209      C3210   1.413       .  A
C3210      N3211   1.430   1_545  S
N3211      O4367   1.262       .  A
N3211      O3216   1.261       .  A
H3212      C4357   1.084       .  S
N3214      O3218   1.262       .  A
N3214      O3217   1.262       .  A
O3215      N4363   1.262       .  A
C3219      C3220   1.405       .  A
C3219      C3224   1.403       .  A
C3219      H3226   1.083       .  S
C3220      C3524   1.480       .  S
C3220      C3221   1.411       .  A
C3221      C3222   1.387       .  A
C3221      N4380   1.428       .  S
C3222      C3223   1.403       .  A
C3222      H3227   1.084       .  S
C3223      C3224   1.413       .  A
C3224      N3225   1.428       .  S
N3225      O3229   1.261       .  A
N3225      O3230   1.261       .  A
N3228      C4373   1.433       .  S
N3228      O3232   1.262       .  A
N3228      O3231   1.262       .  A
C3233      C3234   1.396       .  A
C3233      C3238   1.404       .  A
C3233      H3240   1.084       .  S
C3234      C3235   1.408       .  A
C3235      C3236   1.403       .  A
C3235      N3242   1.431       .  S
C3236      C3237   1.404       .  A
C3237      C3238   1.423       .  A
C3238      N3239   1.435       .  S
N3239      O3243   1.262       .  A
N3239      O3244   1.261       .  A
C3247      C3248   1.408       .  A
C3247      C3252   1.404       .  A
C3247      H3254   1.083       .  S
C3248      C3249   1.426       .  A
C3249      C3250   1.406       .  A
C3249      N3256   1.433       .  S
C3250      C3251   1.397       .  A
C3250      H3255   1.084       .  S
C3251      C3252   1.410       .  A
C3252      N4405   1.432       .  S
N3253      C4404   1.433       .  S
N3253      O3257   1.263       .  A
N3253      O3258   1.262   1_565  A
N3256      O3260   1.262       .  A
N3256      O3259   1.262       .  A
C3261      C3262   1.410       .  A
C3261      C3266   1.405       .  A
C3262      C3263   1.416       .  A
C3263      C3264   1.396       .  A
C3263      N3270   1.432       .  S
C3264      C3265   1.407       .  A
C3264      H3269   1.084       .  S
C3265      C3266   1.412       .  A
C3266      N3267   1.434       .  S
N3267      O3271   1.262       .  A
N3267      O3272   1.263       .  A
N3270      O3274   1.263       .  A
N3270      O3273   1.261       .  A
C3275      C3276   1.406       .  A
C3275      C4432   1.393       .  A
C3275      H3282   1.084       .  S
C3276      C3277   1.418       .  A
C3277      C4430   1.418       .  A
C3277      N3284   1.437       .  S
C3278      C4429   1.410   1_545  A
C3278      C3279   1.405       .  A
C3278      H3283   1.081   1_545  S
C3279      C3280   1.405       .  A
C3280      C4427   1.404       .  A
C3280      N3281   1.430       .  S
N3281      O3285   1.262       .  A
N3281      O3286   1.262       .  A
N3284      O3288   1.262       .  A
N3284      O3287   1.262       .  A
C3289      C3290   1.402       .  A
C3289      H3296   1.084       .  S
C3290      C3291   1.419       .  A
C3291      N3298   1.441       .  S
C3292      C3293   1.404       .  A
C3292      H3297   1.083       .  S
C3293      C3294   1.418   1_655  A
C3294      N3295   1.439       .  S
N3295      O3300   1.261   1_455  A
N3298      O3302   1.263       .  A
N3298      O3301   1.262       .  A
C3303      C3304   1.400       .  A
C3303      C3308   1.395       .  A
C3303      H3310   1.084       .  S
C3304      C3305   1.413       .  A
C3305      C3306   1.404       .  A
C3305      N3312   1.431       .  S
C3306      C3307   1.403       .  A
C3306      H3311   1.084       .  S
C3307      C3308   1.414       .  A
C3308      N3309   1.432       .  S
N3309      O3313   1.262       .  A
N3309      O3314   1.262       .  A
N3312      O3316   1.262       .  A
N3312      O3315   1.262       .  A
C3317      C3318   1.406       .  A
C3317      C3322   1.398       .  A
C3317      H3324   1.083       .  S
C3318      C3319   1.417       .  A
C3319      C3320   1.405       .  A
C3319      N3326   1.429       .  S
C3320      C3321   1.403       .  A
C3321      C3322   1.413       .  A
C3322      N3323   1.434       .  S
N3323      O3327   1.262       .  A
N3323      O3328   1.263       .  A
N3326      O3329   1.262       .  A
C3331      C3332   1.399       .  A
C3331      C3336   1.388       .  A
C3331      H3338   1.085       .  S
C3332      C3586   1.473   1_545  S
C3332      C3333   1.409       .  A
C3333      C3334   1.409       .  A
C3333      N4492   1.429       .  S
C3334      C3335   1.407       .  A
C3335      C3336   1.415       .  A
C3336      N3337   1.432       .  S
N3337      O3341   1.262       .  A
N3337      O3342   1.261       .  A
N3340      C4485   1.429       .  S
N3340      O3344   1.262       .  A
N3340      O3343   1.262       .  A
C3345      C3346   1.404       .  A
C3345      C3350   1.389       .  A
C3345      H3352   1.084       .  S
C3346      C3347   1.414       .  A
C3347      C3348   1.407       .  A
C3347      N3354   1.430       .  S
C3348      C3349   1.404       .  A
C3348      H4505   1.084       .  S
C3349      C3502   1.476   1_545  S
C3349      C3350   1.413       .  A
C3350      N3351   1.432       .  S
N3351      O3355   1.262   1_545  A
N3351      O3356   1.260       .  A
H3353      C4500   1.085       .  S
N3354      O3358   1.262       .  A
N3354      O3357   1.262       .  A
C3359      C3360   1.396       .  A
C3359      C3364   1.397       .  A
C3359      H3366   1.085       .  S
C3360      C3361   1.410       .  A
C3361      C3362   1.413       .  A
C3361      N3368   1.428       .  S
C3362      C3363   1.409       .  A
C3362      H3367   1.084       .  S
C3363      C3364   1.424       .  A
C3364      N3365   1.433       .  S
N3365      O3369   1.262       .  A
N3365      O3370   1.262       .  A
N3368      O3372   1.262       .  A
N3368      O3371   1.262       .  A
C3373      C3374   1.406       .  A
C3373      C3378   1.401       .  A
C3374      C3375   1.418       .  A
C3375      C3376   1.403       .  A
C3375      N3382   1.430       .  S
C3376      C3377   1.403       .  A
C3376      H3381   1.084       .  S
C3377      C3378   1.412       .  A
N3379      O3383   1.261       .  A
N3382      O3386   1.262       .  A
N3382      O3385   1.262       .  A
C3387      C3388   1.399       .  A
C3387      C3392   1.399       .  A
C3387      H3394   1.084       .  S
C3388      C3389   1.408       .  A
C3389      C3390   1.405       .  A
C3389      N4548   1.430       .  S
C3390      C3391   1.409       .  A
C3390      H4547   1.084       .  S
C3391      C3392   1.418       .  A
C3392      N3393   1.432       .  S
N3393      O3397   1.262       .  A
N3393      O3398   1.262       .  A
H3395      C4542   1.084       .  S
N3396      C4541   1.430       .  S
N3396      O3400   1.262       .  A
N3396      O3399   1.262       .  A
C3401      C3402   1.409       .  A
C3401      C3406   1.405       .  A
C3401      H4560   1.084       .  S
C3402      C3476   1.487       .  S
C3402      C3403   1.416       .  A
C3403      C3404   1.396       .  A
C3403      N3410   1.429       .  S
C3404      C3405   1.399       .  A
C3404      H3409   1.084       .  S
C3405      C3406   1.407       .  A
C3406      N3407   1.428       .  S
N3407      O3411   1.262       .  A
N3407      O3412   1.262       .  A
H3408      C4553   1.083       .  S
N3410      O3414   1.262       .  A
N3410      O3413   1.261       .  A
C3415      C3416   1.399       .  A
C3415      C3420   1.399       .  A
C3415      H3422   1.084       .  S
C3416      C3417   1.411       .  A
C3417      N3424   1.433       .  S
C3418      C3419   1.406       .  A
C3418      H3423   1.084       .  S
N3421      O3426   1.261       .  A
N3424      O3427   1.262       .  A
C3429      C4582   1.409       .  A
C3429      C3434   1.416       .  A
C3429      H3436   1.084       .  S
C3430      C4581   1.406   1_545  A
C3430      C3431   1.404       .  A
C3431      C3432   1.399       .  A
C3431      N3438   1.430       .  S
C3432      C4585   1.405   1_545  A
C3432      H3437   1.081       .  S
C3433      C4584   1.408       .  A
C3433      C3434   1.413       .  A
C3434      N3435   1.433       .  S
N3435      O3439   1.262       .  A
N3435      O3440   1.262       .  A
N3438      O3442   1.262       .  A
N3438      O3441   1.262       .  A
C3443      C3444   1.400       .  A
C3443      C3448   1.392       .  A
C3444      C3445   1.414       .  A
C3445      C3446   1.412       .  A
C3445      N3452   1.438       .  S
C3446      C3447   1.405       .  A
C3446      H3451   1.083       .  S
C3447      C3448   1.407       .  A
C3448      N3449   1.434       .  S
N3449      O3453   1.263       .  A
N3449      O3454   1.261       .  A
N3452      O3456   1.262       .  A
N3452      O3455   1.263       .  A
O3457      C3472   1.259       .  A
O3457     Al3465   1.930       .  S
C3458      O3468   1.261       .  A
C3458      O3459   1.260       .  A
O3459     Al3461   1.895       .  S
O3460      C3462   1.256       .  A
O3460     Al3461   1.863       .  S
Al3461     O3469   1.880       .  S
Al3461     O3471   1.909       .  S
Al3461     O3470   1.771       .  S
C3462      O3475   1.274       .  A
C3462      C4571   1.484       .  S
O3463      C3473   1.262       .  A
O3463     Al3465   1.909       .  S
O3464      C3477   1.260       .  A
O3464     Al3474   1.881       .  S
Al3465     O3478   1.937       .  S
Al3465     O3475   1.972       .  S
Al3465     O3470   1.782       .  S
O3466      C3473   1.265       .  A
O3466     Al3474   1.929       .  S
O3467      C3476   1.270       .  A
O3467     Al3474   1.948       .  S
O3468     Al3474   1.919       .  S
O3469      C3476   1.260       .  A
O3470     Al3474   1.785       .  S
O3471      C3472   1.258       .  A
C3472      C4582   1.483       .  S
C3473      C4529   1.490       .  S
C3477      O3478   1.268       .  A
C3477      C4540   1.486       .  S
O3479      C3494   1.263       .  A
O3479     Al3487   1.939       .  S
C3480      O3490   1.266       .  A
C3480      O3481   1.255       .  A
O3481     Al3483   1.883       .  S
O3482      C3484   1.258       .  A
O3482     Al3483   1.875       .  S
Al3483     O3491   1.894       .  S
Al3483     O3493   1.888       .  S
Al3483     O3492   1.771       .  S
C3484      O3497   1.270       .  A
C3484      C4568   1.470       .  S
O3485      C3495   1.262       .  A
O3485     Al3487   1.903       .  S
O3486      C3499   1.264       .  A
O3486     Al3496   1.901       .  S
Al3487     O3500   1.927       .  S
Al3487     O3497   1.950       .  S
Al3487     O3492   1.785       .  S
O3488      C3495   1.260       .  A
O3488     Al3496   1.909       .  S
O3489      C3498   1.265       .  A
O3489     Al3496   1.922       .  S
O3490     Al3496   1.939       .  S
O3491      C3498   1.262       .  A
O3492     Al3496   1.789       .  S
O3493      C3494   1.253       .  A
C3494      C4512   1.480       .  S
C3495      C4470   1.489       .  S
C3498      C4498   1.462       .  S
C3499      O3500   1.267       .  A
C3499      C4456   1.485       .  S
O3501      C3516   1.259       .  A
O3501     Al3509   1.934       .  S
C3502      O3512   1.262       .  A
C3502      O3503   1.256       .  A
O3503     Al3505   1.893       .  S
O3504      C3506   1.258       .  A
O3504     Al3505   1.860       .  S
Al3505     O3513   1.884       .  S
Al3505     O3515   1.901       .  S
Al3505     O3514   1.772       .  S
C3506      O3519   1.278       .  A
C3506      C4428   1.482       .  S
O3507      C3517   1.263       .  A
O3507     Al3509   1.905       .  S
O3508      C3521   1.259       .  A
O3508     Al3518   1.881       .  S
Al3509     O3522   1.943       .  S
Al3509     O3519   1.983       .  S
Al3509     O3514   1.776       .  S
O3510      C3517   1.261       .  A
O3510     Al3518   1.911       .  S
O3511      C3520   1.271       .  A
O3511     Al3518   1.939       .  S
O3512     Al3518   1.919       .  S
O3513      C3520   1.262       .  A
O3514     Al3518   1.779       .  S
O3515      C3516   1.253       .  A
C3516      C4442   1.481       .  S
C3517      C4400   1.492       .  S
C3521      O3522   1.271       .  A
C3521      C4386   1.490       .  S
O3523      C3538   1.279       .  A
O3523     Al3531   1.989       .  S
C3524      O3534   1.270       .  A
C3524      O3525   1.260       .  A
O3525     Al3527   1.869       .  S
O3526      C3528   1.258       .  A
O3526     Al3527   1.908       .  S
Al3527     O3535   1.905       .  S
Al3527     O3537   1.876       .  S
Al3527     O3536   1.770       .  S
C3528      O3541   1.261       .  A
C3528      C4431   1.481       .  S
O3529      C3539   1.267       .  A
O3529     Al3531   1.949       .  S
O3530      C3543   1.263       .  A
O3530     Al3540   1.904       .  S
Al3531     O3544   1.900       .  S
Al3531     O3541   1.933       .  S
Al3531     O3536   1.785       .  S
O3532      C3539   1.255       .  A
O3532     Al3540   1.874       .  S
O3533      C3542   1.257       .  A
O3533     Al3540   1.918       .  S
O3534     Al3540   1.936       .  S
O3535      C3542   1.257       .  A
O3536     Al3540   1.780       .  S
O3537      C3538   1.262       .  A
C3538      C4515   1.492       .  S
C3539      C4361   1.487       .  S
C3542      C4599   1.473       .  S
C3543      O3544   1.263       .  A
C3543      C4347   1.471       .  S
O3545      C3560   1.260       .  A
O3545     Al3553   1.931       .  S
C3546      O3556   1.262       .  A
C3546      O3547   1.259       .  A
C3546      C4557   1.479       .  S
O3547     Al3549   1.894       .  S
O3548      C3550   1.258       .  A
O3548     Al3549   1.864       .  S
Al3549     O3557   1.876       .  S
Al3549     O3559   1.912       .  S
Al3549     O3558   1.770       .  S
C3550      O3563   1.276       .  A
C3550      C4330   1.484       .  S
O3551      C3561   1.263       .  A
O3551     Al3553   1.898       .  S
O3552      C3565   1.258       .  A
O3552     Al3562   1.881       .  S
Al3553     O3566   1.938       .  S
Al3553     O3563   1.979       .  S
Al3553     O3558   1.778       .  S
O3554      C3561   1.264       .  A
O3554     Al3562   1.919       .  S
O3555      C3564   1.269       .  A
O3555     Al3562   1.944       .  S
O3556     Al3562   1.920       .  S
O3557      C3564   1.263       .  A
O3558     Al3562   1.782       .  S
O3559      C3560   1.256       .  A
C3560      C4445   1.484       .  S
C3561      C4302   1.490       .  S
C3565      O3566   1.269       .  A
C3565      C4316   1.488       .  S
O3567      C3582   1.274       .  A
O3567     Al3575   1.978       .  S
C3568      O3578   1.271       .  A
C3568      O3569   1.261       .  A
C3568      C4417   1.487       .  S
O3569     Al3571   1.871       .  S
O3570      C3572   1.258       .  A
O3570     Al3571   1.904       .  S
Al3571     O3579   1.890       .  S
Al3571     O3581   1.861       .  S
Al3571     O3580   1.770       .  S
C3572      O3585   1.263       .  A
C3572      C4333   1.479       .  S
O3573      C3583   1.269       .  A
O3573     Al3575   1.939       .  S
O3574      C3587   1.264       .  A
O3574     Al3584   1.921       .  S
Al3575     O3588   1.909       .  S
Al3575     O3585   1.936       .  S
Al3575     O3580   1.777       .  S
O3576      C3583   1.260       .  A
O3576     Al3584   1.884       .  S
O3577      C3586   1.259       .  A
O3577     Al3584   1.915       .  S
O3578     Al3584   1.951       .  S
O3579      C3586   1.259       .  A
O3580     Al3584   1.783       .  S
O3581      C3582   1.256       .  A
C3582      C4585   1.479       .  S
C3583      C4274   1.483       .  S
C3587      O3588   1.264       .  A
C3587      C4288   1.481       .  S
O3589     Al3597   1.978       .  S
C3590      O3600   1.275       .  A
C3590      O3591   1.260       .  A
C3590      C4246   1.492       .  S
O3591     Al3593   1.871       .  S
O3592      C3594   1.262       .  A
O3592     Al3593   1.924       .  S
Al3593     O3601   1.916       .  S
Al3593     O3603   1.876       .  S
Al3593     O3602   1.771       .  S
C3594      O3607   1.260       .  A
C3594      C4260   1.475       .  S
O3595      C3605   1.266       .  A
O3595     Al3597   1.942       .  S
O3596     Al3606   1.943       .  S
Al3597     O3610   1.889       .  S
O3598     Al3606   1.883       .  S
O3599      C3608   1.258       .  A
O3599     Al3606   1.914       .  S
O3600     Al3606   1.964       .  S
O3601      C3608   1.260       .  A
O3602     Al3606   1.773       .  S
O3603      C3604   1.259       .  A
C3604      C4232   1.480       .  S
C3605      C4358   1.494       .  S
C3608      C4221   1.475       .  S
C3609      O3610   1.263       .  A
C3609      C4543   1.484       .  S
O3611      C3626   1.261       .  A
O3611     Al3619   1.938       .  S
C3612      O3622   1.265       .  A
C3612      O3613   1.257       .  A
C3612      C4204   1.481       .  S
O3613     Al3615   1.892       .  S
O3614      C3616   1.257       .  A
O3614     Al3615   1.858       .  S
Al3615     O3623   1.878       .  S
Al3615     O3625   1.897       .  S
Al3615     O3624   1.775       .  S
C3616      O3629   1.274       .  A
C3616      C4263   1.472       .  S
O3617      C3627   1.263       .  A
O3617     Al3619   1.914       .  S
O3618      C3631   1.261       .  A
O3618     Al3628   1.888       .  S
Al3619     O3632   1.932       .  S
Al3619     O3629   1.967       .  S
Al3619     O3624   1.780       .  S
O3620      C3627   1.264       .  A
O3620     Al3628   1.924       .  S
O3621      C3630   1.268       .  A
O3621     Al3628   1.944       .  S
O3622     Al3628   1.929       .  S
O3623      C3630   1.262       .  A
O3624     Al3628   1.784       .  S
O3625      C3626   1.253       .  A
C3626      C4190   1.483       .  S
C3627      C4162   1.498       .  S
C3630      C4179   1.487       .  S
C3631      O3632   1.268       .  A
C3631      C4148   1.486       .  S
O3633      C3648   1.262       .  A
C3634      O3644   1.264       .  A
C3634      O3635   1.255       .  A
C3634      C4120   1.479       .  S
O3635     Al3637   1.886       .  S
O3636      C3638   1.258       .  A
O3636     Al3637   1.865       .  S
Al3637     O3645   1.882       .  S
Al3637     O3647   1.904       .  S
Al3637     O3646   1.771       .  S
C3638      O3651   1.275       .  A
C3638      C4137   1.478       .  S
O3639      C3649   1.263       .  A
O3639     Al3641   1.902       .  S
O3640     Al3650   1.888       .  S
Al3641     O3654   1.921       .  S
O3642     Al3650   1.939       .  S
O3643      C3652   1.273       .  A
O3643     Al3650   1.957       .  S
O3644     Al3650   1.926       .  S
O3645      C3652   1.263       .  A
O3646     Al3650   1.780       .  S
O3647      C3648   1.255       .  A
C3648      C4193   1.484       .  S
C3649      C4526   1.500       .  S
C3652      C4249   1.488       .  S
C3653      O3654   1.264   1_455  A
C3653      C4319   1.482   1_455  S
O3655      C3670   1.264       .  A
O3655     Al3663   1.947       .  S
C3656      O3666   1.262       .  A
C3656      O3657   1.252       .  A
C3656      C4176   1.475       .  S
O3657     Al3659   1.879       .  S
O3658      C3660   1.260       .  A
O3658     Al3659   1.870       .  S
Al3659     O3667   1.891       .  S
Al3659     O3669   1.898       .  S
Al3659     O3668   1.776       .  S
C3660      O3673   1.275       .  A
C3660      C4134   1.475       .  S
O3661      C3671   1.265       .  A
O3661     Al3663   1.906       .  S
O3662      C3675   1.262       .  A
O3662     Al3672   1.896       .  S
Al3663     O3676   1.923       .  S
Al3663     O3673   1.971       .  S
Al3663     O3668   1.777       .  S
O3664      C3671   1.266       .  A
O3664     Al3672   1.926       .  S
O3665      C3674   1.274       .  A
O3665     Al3672   1.950       .  S
O3666     Al3672   1.928       .  S
O3667      C3674   1.267       .  A
O3668     Al3672   1.779       .  S
O3669      C3670   1.252       .  A
C3670      C4106   1.480       .  S
C3671      C4064   1.501       .  S
C3674      C4095   1.492       .  S
C3675      O3676   1.264       .  A
C3675      C4078   1.489       .  S
O3677      C3692   1.260       .  A
O3677     Al3685   1.933       .  S
C3678      O3688   1.263       .  A
C3678      O3679   1.256       .  A
C3678      C4092   1.486       .  S
O3679     Al3681   1.895       .  S
O3680      C3682   1.258       .  A
O3680     Al3681   1.862       .  S
Al3681     O3689   1.882       .  S
Al3681     O3691   1.904       .  S
Al3681     O3690   1.772       .  S
C3682      O3695   1.274       .  A
C3682      C4050   1.470       .  S
O3683      C3693   1.261       .  A
O3683     Al3685   1.895       .  S
O3684      C3697   1.261       .  A
O3684     Al3694   1.882       .  S
Al3685     O3698   1.927       .  S
Al3685     O3695   1.968       .  S
Al3685     O3690   1.783       .  S
O3686      C3693   1.266       .  A
O3686     Al3694   1.924       .  S
O3687      C3696   1.273       .  A
O3687     Al3694   1.950       .  S
O3688     Al3694   1.930       .  S
O3689      C3696   1.264       .  A
O3690     Al3694   1.779       .  S
O3691      C3692   1.254       .  A
C3692      C4235   1.476       .  S
C3693      C4036   1.487       .  S
C3696      C4207   1.486       .  S
C3697      O3698   1.264       .  A
C3697      C4025   1.488       .  S
O3699      C3714   1.263       .  A
O3699     Al3707   1.933       .  S
C3700      O3710   1.259       .  A
C3700      O3701   1.258       .  A
C3700      C4218   1.472       .  S
O3701     Al3703   1.901       .  S
O3702      C3704   1.260       .  A
O3702     Al3703   1.871       .  S
Al3703     O3711   1.879       .  S
Al3703     O3713   1.921       .  S
Al3703     O3712   1.770       .  S
C3704      O3717   1.271       .  A
C3704      C4053   1.479       .  S
O3705      C3715   1.264       .  A
O3705     Al3707   1.897       .  S
O3706      C3719   1.257       .  A
O3706     Al3716   1.886       .  S
Al3707     O3720   1.924       .  S
Al3707     O3717   1.957       .  S
Al3707     O3712   1.781       .  S
O3708      C3715   1.267       .  A
O3708     Al3716   1.923       .  S
O3709      C3718   1.268       .  A
O3709     Al3716   1.938       .  S
O3710     Al3716   1.915       .  S
O3711      C3718   1.264       .  A
O3712     Al3716   1.778       .  S
O3713      C3714   1.260       .  A
C3714      C4109   1.484       .  S
C3715      C4305   1.488       .  S
C3718      C4123   1.486       .  S
C3719      O3720   1.263       .  A
C3719      C4344   1.474       .  S
O3721      C3736   1.261       .  A
O3721     Al3729   1.935       .  S
C3722      O3732   1.269       .  A
C3722      O3723   1.270       .  A
C3722      C3997   1.473       .  S
O3723     Al3725   1.916       .  S
O3724      C3726   1.259       .  A
O3724     Al3725   1.870       .  S
Al3725     O3733   1.893       .  S
Al3725     O3735   1.860       .  S
Al3725     O3734   1.774       .  S
C3726      O3739   1.267       .  A
C3726      C4008   1.488       .  S
O3727      C3737   1.258       .  A
O3727     Al3729   1.938       .  S
O3728      C3741   1.269       .  A
O3728     Al3738   1.881       .  S
Al3729     O3742   1.939       .  S
Al3729     O3739   1.938       .  S
Al3729     O3734   1.800       .  S
O3730      C3737   1.245       .  A
O3730     Al3738   1.859       .  S
O3731      C3740   1.249       .  A
O3731     Al3738   1.899       .  S
O3732     Al3738   1.911       .  S
O3733      C3740   1.248       .  A
O3734     Al3738   1.802       .  S
O3735      C3736   1.249       .  A
C3736      C3980   1.482       .  S
C3737      C4067   1.491       .  S
C3740      C3969   1.466       .  S
C3741      O3742   1.277       .  A
C3741      C4022   1.466       .  S
O3743     Al3751   1.926       .  S
C3744      O3754   1.260       .  A
C3744      O3745   1.266       .  A
C3744      C3927   1.468       .  S
O3745     Al3747   1.926       .  S
O3746      C3748   1.257       .  A
O3746     Al3747   1.857       .  S
Al3747     O3755   1.882       .  S
Al3747     O3757   1.902       .  S
Al3747     O3756   1.770       .  S
C3748      C4011   1.499       .  S
O3749      C3759   1.262       .  A
O3749     Al3751   1.916       .  S
O3750     Al3760   1.872       .  S
Al3751     O3764   1.956       .  S
Al3751     O3761   1.969       .  S
O3752     Al3760   1.897       .  S
O3753      C3762   1.260       .  A
O3753     Al3760   1.936       .  S
O3754     Al3760   1.898       .  S
O3755      C3762   1.255       .  A
O3756     Al3760   1.792       .  S
O3757      C3758   1.258       .  A
C3758      C3952   1.484       .  S
C3759      C4473   1.496       .  S
C3762      C3941   1.476       .  S
C3763      O3764   1.275       .  A
C3763      C4389   1.476       .  S
O3765      C3780   1.262       .  A
O3765     Al3773   1.930       .  S
C3766      O3776   1.258       .  A
C3766      O3767   1.258       .  A
C3766      C3896   1.464       .  S
O3767     Al3769   1.889       .  S
O3768      C3770   1.259       .  A
O3768     Al3769   1.879       .  S
Al3769     O3777   1.877       .  S
Al3769     O3779   1.893       .  S
Al3769     O3778   1.767       .  S
C3770      O3783   1.270       .  A
C3770      C3910   1.486       .  S
O3771      C3781   1.263       .  A
O3771     Al3773   1.911       .  S
O3772      C3785   1.259       .  A
O3772     Al3782   1.882       .  S
Al3773     O3786   1.931       .  S
Al3773     O3783   1.958       .  S
Al3773     O3778   1.785       .  S
O3774      C3781   1.263       .  A
O3774     Al3782   1.905       .  S
O3775      C3784   1.265       .  A
O3775     Al3782   1.937       .  S
O3776     Al3782   1.905       .  S
O3777      C3784   1.261       .  A
O3778     Al3782   1.789       .  S
O3779      C3780   1.257       .  A
C3780      C3955   1.476       .  S
C3781      C4039   1.492       .  S
C3784      C3994   1.488       .  S
C3785      O3786   1.267       .  A
C3785      C4151   1.476       .  S
O3787      C3802   1.267       .  A
O3787     Al3795   1.942       .  S
C3788      O3798   1.256       .  A
C3788      O3789   1.259       .  A
C3788      C3966   1.462       .  S
O3789     Al3791   1.903       .  S
O3790      C3792   1.260       .  A
O3790     Al3791   1.882       .  S
Al3791     O3799   1.875       .  S
Al3791     O3801   1.904       .  S
Al3791     O3800   1.766       .  S
C3792      O3805   1.274       .  A
C3792      C3882   1.491       .  S
O3793      C3803   1.266       .  A
O3793     Al3795   1.913       .  S
O3794      C3807   1.255       .  A
O3794     Al3804   1.872       .  S
Al3795     O3808   1.956       .  S
Al3795     O3805   1.973       .  S
Al3795     O3800   1.780       .  S
O3796      C3803   1.266       .  A
O3796     Al3804   1.921       .  S
O3797      C3806   1.268       .  A
O3797     Al3804   1.939       .  S
O3798     Al3804   1.902       .  S
O3799      C3806   1.259       .  A
O3800     Al3804   1.779       .  S
O3801      C3802   1.260       .  A
C3802      C3868   1.489       .  S
C3803      C4165   1.494       .  S
C3806      C3899   1.478       .  S
C3807      O3808   1.269       .  A
C3807      C4081   1.481       .  S
O3809     Al3817   1.942   1_545  S
C3810      O3820   1.269       .  A
C3810      O3811   1.261       .  A
C3810      C3854   1.473       .  S
O3811     Al3813   1.871       .  S
O3812      C3814   1.262       .  A
O3812     Al3813   1.917       .  S
Al3813     O3821   1.892       .  S
Al3813     O3823   1.893       .  S
Al3813     O3822   1.772       .  S
C3814      C3885   1.476       .  S
O3815      C3825   1.270       .  A
O3815     Al3817   1.913       .  S
O3816     Al3826   1.929       .  S
Al3817     O3830   1.924       .  S
Al3817     O3827   1.970   1_565  S
O3818     Al3826   1.887       .  S
O3819      C3828   1.256       .  A
O3819     Al3826   1.904       .  S
O3820     Al3826   1.943       .  S
O3821      C3828   1.255       .  A
O3822     Al3826   1.789       .  S
O3823      C3824   1.259       .  A
C3824      C3983   1.484       .  S
C3825      C4403   1.491       .  S
C3828      C3924   1.468       .  S
C3829      O3830   1.263       .  A
C3829      C4291   1.490       .  S
O3831      C3846   1.268       .  A
O3831     Al3839   1.924       .  S
C3832      O3842   1.258       .  A
C3832      O3833   1.257       .  A
C3832      C3938   1.463       .  S
O3833     Al3835   1.888       .  S
O3834      C3836   1.252       .  A
O3834     Al3835   1.876       .  S
Al3835     O3843   1.864       .  S
Al3835     O3845   1.925       .  S
Al3835     O3844   1.764       .  S
C3836      O3849   1.268       .  A
C3836      C3913   1.483       .  S
O3837      C3847   1.272       .  A
O3837     Al3839   1.913       .  S
O3838      C3851   1.257       .  A
O3838     Al3848   1.891       .  S
Al3839     O3852   1.939       .  S
Al3839     O3849   1.970       .  S
Al3839     O3844   1.788       .  S
O3840      C3847   1.271       .  A
O3840     Al3848   1.929       .  S
O3841      C3850   1.265       .  A
O3841     Al3848   1.936       .  S
O3842     Al3848   1.904       .  S
O3843      C3850   1.256       .  A
O3844     Al3848   1.780       .  S
O3845      C3846   1.268       .  A
C3846      C3871   1.483       .  S
C3847      C4277   1.491       .  S
C3850      C3857   1.474       .  S
C3851      O3852   1.265       .  A
C3851      C4459   1.484       .  S
C3853      C3854   1.400       .  A
C3853      C3858   1.387       .  A
C3853      H3860   1.085       .  S
C3854      C3855   1.411       .  A
C3855      C3856   1.411       .  A
C3855      N3862   1.430       .  S
C3856      C3857   1.406       .  A
C3856      H3861   1.083       .  S
C3857      C3858   1.410       .  A
C3858      N3859   1.431       .  S
N3859      O3863   1.262       .  A
N3859      O3864   1.262       .  A
N3862      O3866   1.262       .  A
N3862      O3865   1.262       .  A
C3867      C3868   1.409       .  A
C3867      C3872   1.417       .  A
C3867      H3874   1.083       .  S
C3868      C3869   1.413       .  A
C3869      C3870   1.394       .  A
C3869      N3876   1.431       .  S
C3870      C3871   1.400       .  A
C3870      H3875   1.083       .  S
C3871      C3872   1.414       .  A
C3872      N3873   1.434       .  S
N3873      O3877   1.262       .  A
N3873      O3878   1.262       .  A
N3876      O3880   1.262       .  A
N3876      O3879   1.261       .  A
C3881      C3882   1.408       .  A
C3881      C3886   1.411       .  A
C3881      H3888   1.083       .  S
C3882      C3883   1.415       .  A
C3883      C3884   1.398       .  A
C3883      N3890   1.428       .  S
C3884      C3885   1.398       .  A
C3885      C3886   1.411       .  A
C3886      N3887   1.431       .  S
N3887      O3891   1.262       .  A
N3887      O3892   1.262       .  A
C3895      C3896   1.399       .  A
C3895      C3900   1.393       .  A
C3895      H3902   1.085       .  S
C3896      C3897   1.408       .  A
C3897      C3898   1.404       .  A
C3897      N3904   1.432   1_556  S
C3898      C3899   1.406       .  A
C3898      H3903   1.083   1_556  S
C3899      C3900   1.413       .  A
C3900      N3901   1.431       .  S
N3901      O3905   1.260       .  A
N3901      O3906   1.262       .  A
N3904      O3908   1.262       .  A
N3904      O3907   1.262       .  A
C3909      C3910   1.407       .  A
C3909      C3914   1.404       .  A
C3909      H3916   1.084       .  S
C3910      C3911   1.412       .  A
C3911      C3912   1.407       .  A
C3911      N3918   1.433       .  S
C3912      C3913   1.406       .  A
C3912      H3917   1.083       .  S
C3913      C3914   1.409       .  A
C3914      N3915   1.430       .  S
N3915      O3919   1.262       .  A
N3915      O3920   1.262       .  A
N3918      O3922   1.262       .  A
N3918      O3921   1.262       .  A
C3923      C3924   1.401       .  A
C3923      C3928   1.406       .  A
C3923      H3930   1.082       .  S
C3924      C3925   1.409       .  A
C3925      C3926   1.400       .  A
C3925      N3932   1.431       .  S
C3926      C3927   1.398       .  A
C3926      H3931   1.080       .  S
C3927      C3928   1.413       .  A
C3928      N3929   1.440       .  S
N3929      O3933   1.262       .  A
N3929      O3934   1.262       .  A
N3932      O3936   1.262       .  A
N3932      O3935   1.262       .  A
C3937      C3938   1.397       .  A
C3937      C3942   1.401       .  A
C3937      H3944   1.085       .  S
C3938      C3939   1.408       .  A
C3939      C3940   1.401       .  A
C3939      N3946   1.431       .  S
C3940      C3941   1.404       .  A
C3940      H3945   1.082       .  S
C3941      C3942   1.414       .  A
C3942      N3943   1.434       .  S
N3943      O3947   1.262       .  A
N3943      O3948   1.263       .  A
N3946      O3950   1.262       .  A
N3946      O3949   1.261       .  A
C3951      C3952   1.404       .  A
C3951      C3956   1.412       .  A
C3952      C3953   1.413       .  A
C3953      C3954   1.402       .  A
C3953      N3960   1.428       .  S
C3954      C3955   1.397       .  A
C3954      H3959   1.083       .  S
C3955      C3956   1.414       .  A
N3957      O3961   1.263       .  A
N3957      O3962   1.263       .  A
N3960      O3964   1.262       .  A
N3960      O3963   1.260       .  A
C3965      C3966   1.401       .  A
C3965      C3970   1.409       .  A
C3965      H3972   1.083       .  S
C3966      C3967   1.403       .  A
C3967      C3968   1.392       .  A
C3967      N3974   1.429       .  S
C3968      C3969   1.400       .  A
C3968      H3973   1.085       .  S
C3969      C3970   1.416       .  A
C3970      N3971   1.443       .  S
N3971      O3975   1.263       .  A
N3971      O3976   1.263       .  A
N3974      O3978   1.262       .  A
N3974      O3977   1.262   1_556  A
C3979      C3980   1.403       .  A
C3979      C3984   1.406       .  A
C3979      H3986   1.084       .  S
C3980      C3981   1.414       .  A
C3981      C3982   1.406       .  A
C3981      N3988   1.434       .  S
C3982      C3983   1.402       .  A
C3983      C3984   1.413       .  A
C3984      N3985   1.429       .  S
N3985      O3989   1.262       .  A
N3985      O3990   1.261       .  A
N3988      O3991   1.262       .  A
C3993      C3994   1.402       .  A
C3993      C3998   1.387       .  A
C3993      H4000   1.084       .  S
C3994      C3995   1.422       .  A
C3995      C3996   1.414       .  A
C3995      N4002   1.436   1_556  S
C3996      C3997   1.403       .  A
C3996      H4001   1.083   1_556  S
C3997      C3998   1.404       .  A
C3998      N3999   1.426       .  S
N3999      O4003   1.262       .  A
N3999      O4004   1.261       .  A
N4002      O4006   1.263       .  A
N4002      O4005   1.263       .  A
C4007      C4008   1.408       .  A
C4007      C4012   1.418       .  A
C4007      H4014   1.084       .  S
C4008      C4009   1.412       .  A
C4009      C4010   1.389       .  A
C4009      N4016   1.435       .  S
C4010      C4011   1.406       .  A
C4010      H4015   1.083       .  S
C4011      C4012   1.420       .  A
N4013      O4017   1.262       .  A
N4013      O4018   1.262       .  A
N4016      O4020   1.260       .  A
N4016      O4019   1.263       .  A
C4021      C4026   1.409   1_546  A
C4021      H4028   1.084       .  S
C4022      C4023   1.405   1_556  A
C4023      C4024   1.398       .  A
C4023      N4030   1.430       .  S
C4024      H4029   1.084       .  S
C4025      C4026   1.415       .  A
C4026      N4027   1.429       .  S
N4027      O4031   1.262       .  A
N4027      O4032   1.262       .  A
N4030      O4034   1.262       .  A
N4030      O4033   1.262       .  A
C4035      C4036   1.407   1_556  A
C4035      C4040   1.406       .  A
C4035      H4042   1.084       .  S
C4036      C4037   1.412       .  A
C4037      C4038   1.400       .  A
C4037      N4044   1.431       .  S
C4038      C4039   1.407   1_554  A
C4038      H4043   1.084       .  S
C4039      C4040   1.414       .  A
C4040      N4041   1.430       .  S
N4041      O4045   1.262       .  A
N4041      O4046   1.262       .  A
N4044      O4048   1.262       .  A
N4044      O4047   1.262       .  A
C4049      C4050   1.404       .  A
C4049      C4054   1.408       .  A
C4049      H4056   1.083       .  S
C4050      C4051   1.405       .  A
C4051      C4052   1.398       .  A
C4051      N4058   1.427       .  S
C4052      C4053   1.405       .  A
C4052      H4057   1.085       .  S
C4053      C4054   1.412       .  A
C4054      N4055   1.437       .  S
N4055      O4059   1.263       .  A
N4055      O4060   1.262       .  A
N4058      O4062   1.262       .  A
N4058      O4061   1.262       .  A
C4063      C4064   1.413   1_556  A
C4063      C4068   1.412       .  A
C4063      H4070   1.083       .  S
C4064      C4065   1.415       .  A
C4066      C4067   1.408   1_554  A
C4066      H4071   1.083       .  S
C4068      N4069   1.433       .  S
N4069      O4073   1.263       .  A
N4072      O4076   1.262       .  A
C4077      C4078   1.403   1_556  A
C4077      C4082   1.399       .  A
C4077      H4084   1.084   1_556  S
C4078      C4079   1.417       .  A
C4079      C4080   1.407   1_554  A
C4079      N4086   1.428       .  S
C4080      C4081   1.402       .  A
C4080      H4085   1.084       .  S
C4081      C4082   1.411       .  A
C4082      N4083   1.429       .  S
N4083      O4087   1.261       .  A
N4083      O4088   1.262       .  A
N4086      O4090   1.262       .  A
N4086      O4089   1.262       .  A
C4091      C4092   1.404       .  A
C4091      C4096   1.411       .  A
C4091      H4098   1.083       .  S
C4092      C4093   1.414       .  A
C4093      C4094   1.395       .  A
C4093      N4100   1.430       .  S
C4094      C4095   1.404       .  A
C4094      H4099   1.084       .  S
C4095      C4096   1.418       .  A
C4096      N4097   1.432       .  S
N4097      O4101   1.262   1_554  A
N4097      O4102   1.262       .  A
N4100      O4104   1.261       .  A
N4100      O4103   1.262       .  A
C4105      C4106   1.403       .  A
C4105      C4110   1.409       .  A
C4105      H4112   1.084       .  S
C4106      C4107   1.411       .  A
C4107      C4108   1.405       .  A
C4107      N4114   1.430       .  S
C4108      C4109   1.404       .  A
C4108      H4113   1.084       .  S
C4109      C4110   1.413       .  A
C4110      N4111   1.434       .  S
N4111      O4115   1.262       .  A
N4111      O4116   1.263       .  A
N4114      O4118   1.262       .  A
N4114      O4117   1.261       .  A
C4119      C4120   1.403       .  A
C4119      C4124   1.408       .  A
C4119      H4126   1.084       .  S
C4120      C4121   1.414       .  A
C4121      C4122   1.389       .  A
C4121      N4128   1.431       .  S
C4122      C4123   1.403       .  A
C4122      H4127   1.084       .  S
C4123      C4124   1.419       .  A
C4124      N4125   1.430       .  S
N4125      O4129   1.262       .  A
N4125      O4130   1.262       .  A
N4128      O4132   1.261       .  A
N4128      O4131   1.262       .  A
C4133      C4134   1.399       .  A
C4133      C4138   1.405       .  A
C4133      H4140   1.084       .  S
C4134      C4135   1.415       .  A
C4135      C4136   1.406       .  A
C4135      N4142   1.435       .  S
C4136      C4137   1.401       .  A
C4136      H4141   1.084       .  S
C4137      C4138   1.418       .  A
C4138      N4139   1.436       .  S
N4139      O4143   1.261       .  A
N4139      O4144   1.262       .  A
N4142      O4146   1.262       .  A
N4142      O4145   1.262       .  A
C4147      C4148   1.406       .  A
C4147      H4154   1.084       .  S
C4148      C4149   1.414       .  A
C4149      C4150   1.400   1_554  A
C4149      N4156   1.429       .  S
C4150      H4155   1.084       .  S
C4151      C4152   1.411   1_556  A
C4152      N4153   1.431       .  S
N4153      O4157   1.262       .  A
N4153      O4158   1.262       .  A
N4156      O4160   1.262   1_554  A
N4156      O4159   1.261       .  A
C4161      C4162   1.408   1_556  A
C4161      H4168   1.084       .  S
C4162      C4163   1.413   1_565  A
C4163      N4170   1.430       .  S
C4164      C4165   1.407   1_554  A
C4164      H4169   1.084       .  S
C4165      C4166   1.413       .  A
C4166      N4167   1.430       .  S
N4167      O4172   1.262       .  A
N4170      O4174   1.262   1_545  A
N4170      O4173   1.262       .  A
C4175      C4176   1.401       .  A
C4175      C4180   1.408       .  A
C4175      H4182   1.084       .  S
C4176      C4177   1.414       .  A
C4177      C4178   1.390       .  A
C4177      N4184   1.432       .  S
C4178      C4179   1.404       .  A
C4178      H4183   1.084       .  S
C4179      C4180   1.419       .  A
C4180      N4181   1.430       .  S
N4181      O4185   1.262   1_554  A
N4181      O4186   1.262   1_554  A
N4184      O4188   1.261       .  A
N4184      O4187   1.262       .  A
C4189      C4190   1.405       .  A
C4189      C4194   1.410       .  A
C4189      H4196   1.084       .  S
C4190      C4191   1.415       .  A
C4191      C4192   1.409       .  A
C4191      N4198   1.438       .  S
C4192      C4193   1.403       .  A
C4193      C4194   1.414       .  A
C4194      N4195   1.436       .  S
N4195      O4199   1.262       .  A
N4195      O4200   1.262       .  A
N4198      O4201   1.263       .  A
C4203      C4204   1.404       .  A
C4203      C4208   1.409       .  A
C4203      H4210   1.083       .  S
C4204      C4205   1.415       .  A
C4205      C4206   1.392       .  A
C4205      N4212   1.431       .  S
C4206      C4207   1.402       .  A
C4206      H4211   1.084       .  S
C4207      C4208   1.414       .  A
C4208      N4209   1.429       .  S
N4209      O4213   1.262   1_554  A
N4209      O4214   1.261       .  A
N4212      O4216   1.261       .  A
N4212      O4215   1.262       .  A
C4217      C4218   1.400       .  A
C4217      C4222   1.396       .  A
C4217      H4224   1.085       .  S
C4218      C4219   1.414       .  A
C4219      C4220   1.413       .  A
C4219      N4226   1.437       .  S
C4220      C4221   1.405       .  A
C4220      H4225   1.084       .  S
C4221      C4222   1.410       .  A
C4222      N4223   1.434       .  S
N4223      O4227   1.263       .  A
N4223      O4228   1.261       .  A
N4226      O4230   1.262       .  A
N4226      O4229   1.262       .  A
C4231      C4232   1.404       .  A
C4231      C4236   1.410       .  A
C4231      H4238   1.083       .  S
C4232      C4233   1.407       .  A
C4233      C4234   1.404       .  A
C4233      N4240   1.428       .  S
C4234      C4235   1.404       .  A
C4234      H4239   1.084       .  S
C4235      C4236   1.415       .  A
C4236      N4237   1.442       .  S
N4237      O4241   1.263       .  A
N4237      O4242   1.263       .  A
N4240      O4244   1.262       .  A
N4240      O4243   1.261   1_565  A
C4245      C4246   1.406       .  A
C4245      C4250   1.393       .  A
C4245      H4252   1.084       .  S
C4246      C4247   1.415       .  A
C4247      C4248   1.412       .  A
C4247      N4254   1.434       .  S
C4248      C4249   1.408       .  A
C4248      H4253   1.083       .  S
C4249      C4250   1.414       .  A
C4250      N4251   1.431       .  S
N4251      O4255   1.262       .  A
N4251      O4256   1.262       .  A
N4254      O4258   1.262       .  A
N4254      O4257   1.262       .  A
C4259      C4260   1.404       .  A
C4259      C4264   1.405       .  A
C4259      H4266   1.084       .  S
C4260      C4261   1.410       .  A
C4261      C4262   1.407       .  A
C4262      C4263   1.404       .  A
C4262      H4267   1.084       .  S
C4263      C4264   1.412       .  A
C4264      N4265   1.436       .  S
N4265      O4269   1.262       .  A
N4265      O4270   1.262       .  A
N4268      O4272   1.263       .  A
N4268      O4271   1.263       .  A
C4273      C4274   1.401       .  A
C4273      C4278   1.406       .  A
C4273      H4280   1.084       .  S
C4274      C4275   1.412       .  A
C4275      C4276   1.402       .  A
C4275      N4282   1.429       .  S
C4276      C4277   1.405       .  A
C4276      H4281   1.084       .  S
C4277      C4278   1.419       .  A
C4278      N4279   1.432       .  S
N4279      O4283   1.262       .  A
N4279      O4284   1.262       .  A
N4282      O4286   1.262       .  A
N4282      O4285   1.262       .  A
C4287      C4288   1.404       .  A
C4287      C4292   1.406       .  A
C4287      H4294   1.084       .  S
C4288      C4289   1.408       .  A
C4289      C4290   1.401       .  A
C4289      N4296   1.427       .  S
C4290      C4291   1.407       .  A
C4291      C4292   1.415       .  A
C4292      N4293   1.429       .  S
N4293      O4297   1.262       .  A
N4293      O4298   1.262       .  A
C4301      C4302   1.405       .  A
C4301      C4306   1.402       .  A
C4301      H4308   1.084       .  S
C4302      C4303   1.415       .  A
C4303      C4304   1.403       .  A
C4303      N4310   1.429       .  S
C4304      C4305   1.406       .  A
C4304      H4309   1.084       .  S
C4305      C4306   1.414       .  A
C4306      N4307   1.431       .  S
N4307      O4311   1.262       .  A
N4307      O4312   1.262       .  A
N4310      O4314   1.262       .  A
N4310      O4313   1.262       .  A
C4315      C4316   1.406       .  A
C4315      C4320   1.406       .  A
C4315      H4322   1.084       .  S
C4316      C4317   1.418       .  A
C4317      C4318   1.400   1_655  A
C4318      C4319   1.402   1_455  A
C4319      C4320   1.413       .  A
C4320      N4321   1.433       .  S
N4321      O4325   1.262       .  A
N4321      O4326   1.262       .  A
N4324      O4328   1.262       .  A
N4324      O4327   1.262       .  A
C4329      C4330   1.405       .  A
C4329      C4334   1.412       .  A
C4329      H4336   1.084       .  S
C4330      C4331   1.415       .  A
C4331      C4332   1.403       .  A
C4331      N4338   1.439       .  S
C4332      C4333   1.400       .  A
C4332      H4337   1.083       .  S
C4333      C4334   1.415       .  A
C4334      N4335   1.433       .  S
N4335      O4339   1.261       .  A
N4335      O4340   1.262       .  A
N4338      O4342   1.263       .  A
N4338      O4341   1.262       .  A
C4343      C4344   1.404       .  A
C4343      C4348   1.404       .  A
C4343      H4350   1.084       .  S
C4344      C4345   1.410       .  A
C4345      C4346   1.399       .  A
C4345      N4352   1.429       .  S
C4346      C4347   1.401       .  A
C4346      H4351   1.084       .  S
C4347      C4348   1.408       .  A
C4348      N4349   1.430       .  S
N4349      O4353   1.262       .  A
N4349      O4354   1.262       .  A
N4352      O4356   1.262       .  A
N4352      O4355   1.261       .  A
C4357      C4358   1.405       .  A
C4357      C4362   1.401       .  A
C4358      C4359   1.416       .  A
C4359      C4360   1.410       .  A
C4359      N4366   1.429       .  S
C4360      C4361   1.405       .  A
C4360      H4365   1.083       .  S
C4361      C4362   1.414       .  A
C4362      N4363   1.432       .  S
N4363      O4368   1.262       .  A
N4366      O4370   1.262       .  A
N4366      O4369   1.262       .  A
C4371      C4372   1.405       .  A
C4371      C4376   1.408       .  A
C4371      H4378   1.084       .  S
C4372      C4373   1.420       .  A
C4373      C4374   1.388       .  A
C4374      C4375   1.402       .  A
C4374      H4379   1.084       .  S
C4375      C4376   1.418       .  A
C4376      N4377   1.432       .  S
N4377      O4381   1.261       .  A
N4377      O4382   1.262       .  A
N4380      O4384   1.260       .  A
N4380      O4383   1.262       .  A
C4385      C4386   1.405       .  A
C4385      C4390   1.406       .  A
C4385      H4392   1.084       .  S
C4386      C4387   1.422       .  A
C4387      C4388   1.404       .  A
C4387      N4394   1.434       .  S
C4388      C4389   1.397       .  A
C4389      C4390   1.410       .  A
C4390      N4391   1.432       .  S
N4391      O4395   1.262       .  A
N4391      O4396   1.262       .  A
C4399      C4400   1.405       .  A
C4399      C4404   1.404       .  A
C4399      H4406   1.084       .  S
C4400      C4401   1.418       .  A
C4401      C4402   1.403       .  A
C4401      N4408   1.430       .  S
C4402      C4403   1.403       .  A
C4402      H4407   1.084       .  S
C4403      C4404   1.419       .  A
N4405      O4409   1.262       .  A
N4405      O4410   1.262       .  A
N4408      O4412   1.262       .  A
N4408      O4411   1.262       .  A
C4413      C4414   1.410       .  A
C4413      C4418   1.404       .  A
C4414      C4415   1.418       .  A
C4415      C4416   1.399       .  A
C4415      N4422   1.433       .  S
C4416      C4417   1.405       .  A
C4416      H4421   1.084       .  S
C4417      C4418   1.411       .  A
C4418      N4419   1.432       .  S
N4419      O4423   1.262       .  A
N4419      O4424   1.262       .  A
N4422      O4426   1.262       .  A
N4422      O4425   1.262       .  A
C4427      C4428   1.409   1_545  A
C4427      H4434   1.084       .  S
C4428      C4429   1.411       .  A
C4429      N4436   1.434       .  S
C4430      C4431   1.408       .  A
C4430      H4435   1.083       .  S
C4431      C4432   1.405       .  A
C4432      N4433   1.430       .  S
N4433      O4437   1.262       .  A
N4433      O4438   1.261       .  A
N4436      O4440   1.262       .  A
N4436      O4439   1.262       .  A
C4441      C4442   1.402       .  A
C4441      H4448   1.084       .  S
C4442      C4443   1.413       .  A
C4443      N4450   1.437       .  S
C4444      C4445   1.406       .  A
C4444      H4449   1.083       .  S
C4445      C4446   1.417   1_655  A
C4446      N4447   1.440       .  S
N4447      O4452   1.262   1_455  A
N4450      O4454   1.262       .  A
N4450      O4453   1.262       .  A
C4455      C4456   1.404       .  A
C4455      C4460   1.405       .  A
C4455      H4462   1.084       .  S
C4456      C4457   1.412       .  A
C4457      C4458   1.404       .  A
C4457      N4464   1.429       .  S
C4458      C4459   1.404       .  A
C4458      H4463   1.084       .  S
C4459      C4460   1.414       .  A
C4460      N4461   1.433       .  S
N4461      O4465   1.262       .  A
N4461      O4466   1.262       .  A
N4464      O4468   1.262       .  A
N4464      O4467   1.261       .  A
C4469      C4470   1.401       .  A
C4469      C4474   1.402       .  A
C4469      H4476   1.084       .  S
C4470      C4471   1.415       .  A
C4471      C4472   1.404       .  A
C4471      N4478   1.429       .  S
C4472      C4473   1.407       .  A
C4473      C4474   1.424       .  A
C4474      N4475   1.433       .  S
N4475      O4479   1.262       .  A
N4475      O4480   1.262       .  A
N4478      O4481   1.262       .  A
C4483      C4484   1.399       .  A
C4483      C4488   1.387       .  A
C4483      H4490   1.085       .  S
C4484      C4485   1.412       .  A
C4485      C4486   1.412       .  A
C4486      C4487   1.408       .  A
C4487      C4488   1.416       .  A
C4488      N4489   1.431       .  S
N4489      O4493   1.262       .  A
N4489      O4494   1.260       .  A
N4492      O4496   1.262       .  A
N4492      O4495   1.262       .  A
C4497      C4498   1.402       .  A
C4497      C4502   1.408       .  A
C4497      H4504   1.083       .  S
C4498      C4499   1.406       .  A
C4499      C4500   1.389       .  A
C4499      N4506   1.430       .  S
C4500      C4501   1.398       .  A
C4501      C4502   1.412       .  A
C4502      N4503   1.436       .  S
N4503      O4507   1.262       .  A
N4503      O4508   1.262       .  A
N4506      O4510   1.261       .  A
N4506      O4509   1.262       .  A
C4511      C4512   1.401       .  A
C4511      C4516   1.401       .  A
C4511      H4518   1.084       .  S
C4512      C4513   1.414       .  A
C4513      C4514   1.414       .  A
C4513      N4520   1.433       .  S
C4514      C4515   1.407       .  A
C4514      H4519   1.082       .  S
C4515      C4516   1.413       .  A
C4516      N4517   1.431       .  S
N4517      O4521   1.262       .  A
N4517      O4522   1.262       .  A
N4520      O4524   1.262       .  A
N4520      O4523   1.262       .  A
C4525      C4526   1.408       .  A
C4525      C4530   1.405       .  A
C4526      C4527   1.419       .  A
C4527      C4528   1.407       .  A
C4527      N4534   1.430       .  S
C4528      C4529   1.405       .  A
C4528      H4533   1.084       .  S
C4529      C4530   1.411       .  A
N4531      O4535   1.261       .  A
N4534      O4538   1.262       .  A
N4534      O4537   1.262       .  A
C4539      C4540   1.403       .  A
C4539      C4544   1.398       .  A
C4539      H4546   1.084       .  S
C4540      C4541   1.413       .  A
C4541      C4542   1.409       .  A
C4542      C4543   1.406       .  A
C4543      C4544   1.411       .  A
C4544      N4545   1.429       .  S
N4545      O4549   1.262       .  A
N4545      O4550   1.262       .  A
N4548      O4552   1.262       .  A
N4548      O4551   1.262       .  A
C4553      C4554   1.410       .  A
C4553      C4558   1.410       .  A
C4554      C4555   1.418       .  A
C4555      C4556   1.388       .  A
C4555      N4562   1.432       .  S
C4556      C4557   1.401       .  A
C4556      H4561   1.085       .  S
C4557      C4558   1.411       .  A
C4558      N4559   1.430       .  S
N4559      O4563   1.262       .  A
N4559      O4564   1.262       .  A
N4562      O4566   1.262   1_565  A
N4562      O4565   1.262       .  A
C4567      C4568   1.396       .  A
C4567      C4572   1.396       .  A
C4567      H4574   1.084       .  S
C4568      C4569   1.416       .  A
C4569      N4576   1.437       .  S
C4570      C4571   1.405       .  A
C4570      H4575   1.084       .  S
N4573      O4578   1.261       .  A
N4576      O4579   1.262       .  A
C4581      C4586   1.409       .  A
C4581      H4588   1.084       .  S
C4582      C4583   1.403       .  A
C4583      C4584   1.397       .  A
C4583      N4590   1.429       .  S
C4584      H4589   1.085       .  S
C4585      C4586   1.411       .  A
C4586      N4587   1.431       .  S
N4587      O4591   1.262       .  A
N4587      O4592   1.262       .  A
N4590      O4594   1.261       .  A
N4590      O4593   1.262       .  A
C4595      C4596   1.400       .  A
C4595      C4600   1.392       .  A
C4596      C4597   1.420       .  A
C4597      C4598   1.415       .  A
C4597      N4604   1.440       .  S
C4598      C4599   1.403       .  A
C4598      H4603   1.083       .  S
C4599      C4600   1.407       .  A
C4600      N4601   1.433       .  S
N4601      O4605   1.263       .  A
N4601      O4606   1.261       .  A
N4604      O4608   1.262       .  A
N4604      O4607   1.263       .  A
