geometry optimzed in LAMMPS
_audit_creation_date              2020-11-30 
_audit_creation_method            'lammps2cif' 
_symmetry_space_group_name_H-M    'P1' 
_symmetry_Int_Tables_number       1 
_symmetry_cell_setting            triclinic 
loop_ 
_symmetry_equiv_pos_as_xyz 
  x,y,z 
_cell_length_a                    40.25919141 
_cell_length_b                    40.358768674780556 
_cell_length_c                    70.97124409209984 
_cell_angle_alpha                 90.09679340053042 
_cell_angle_beta                  90.09421949585366 
_cell_angle_gamma                 90.00237868499529 
loop_ 
_atom_site_label 
_atom_site_type_symbol 
_atom_site_fract_x 
_atom_site_fract_y 
_atom_site_fract_z 
_atom_site_charge 
O1          O  0.44058408  0.41701196  0.91955624    -0.81800
C2          C  0.04796157  0.33276953  0.89957374     0.97600
O3          O  0.03186175  0.35183798  0.88892075    -0.70900
O4          O  0.46794544  0.33907304  0.89104155    -0.74500
Al5        Al  0.99339979  0.37842376  0.89302667     1.49000
C6          C  0.44126295  0.33265243  0.89961708     0.92900
O7          O  0.46628528  0.33849040  0.94479366    -0.80700
O8          O  0.02554838  0.41335450  0.94473506    -0.74200
Al9        Al  0.45633378  0.37753274  0.93124818     1.90100
O10         O  0.01932774  0.34648829  0.94987590    -0.73300
O11         O  0.05678204  0.40252451  0.91257150    -0.73200
O12         O  0.04625645  0.33566219  0.91718965    -0.78800
O13         O  0.01854005  0.41832394  0.89237917    -0.77000
O14         O  0.99430593  0.37690713  0.91822286    -1.13200
O15         O  0.45507647  0.40491069  0.89071765    -0.72400
C16         C  0.43860760  0.42208126  0.90211319     0.98400
C17         C  0.99281864  0.33104807  0.95311974     0.94800
Al18       Al  0.03350519  0.37475689  0.93008170     1.55600
O19         O  0.43265521  0.34902702  0.91404219    -0.77000
C20         C  0.04715578  0.42127916  0.89940701     0.98900
C21         C  0.49988726  0.42038207  0.95410608     0.93800
O22         O  0.47269242  0.40562234  0.95107141    -0.82300
O23         O  0.20541924  0.18118662  0.83261172    -0.81800
C24         C  0.28880126  0.07334288  0.85196606     0.97600
O25         O  0.26906555  0.08851176  0.86274929    -0.70900
O26         O  0.28024154  0.15248830  0.86244866    -0.74500
Al27       Al  0.24154108  0.12647761  0.85908443     1.49000
C28         C  0.28785652  0.17887386  0.85399404     0.92900
O29         O  0.28491265  0.15465955  0.80812479    -0.80700
O30         O  0.20760396  0.09706696  0.80758596    -0.74200
Al31       Al  0.24518766  0.16493478  0.82131240     1.90100
O32         O  0.27429211  0.10282067  0.80155946    -0.73300
O33         O  0.21929358  0.06344217  0.83869789    -0.73200
O34         O  0.28592780  0.07521634  0.83431367    -0.78800
O35         O  0.20177573  0.10102144  0.85861832    -0.77000
O36         O  0.24455678  0.12671386  0.83396256    -1.13200
O37         O  0.21411564  0.16391514  0.86136018    -0.72400
C38         C  0.19845406  0.18162399  0.84988302     0.98400
C39         C  0.29091513  0.12875299  0.79886921     0.94800
Al40       Al  0.24660128  0.08807495  0.82160100     1.55600
O41         O  0.27322526  0.18747459  0.83901033    -0.77000
C42         C  0.19921413  0.07278136  0.85122528     0.98900
C43         C  0.20151381  0.12298734  0.79827968     0.93800
O44         O  0.21752364  0.14949485  0.80111802    -0.82300
O45         O  0.29843949  0.41147842  0.58328879    -0.81800
C46         C  0.19062816  0.32626379  0.59999494     0.97600
O47         O  0.20672268  0.34384971  0.61151390    -0.70900
O48         O  0.27069866  0.33227434  0.61086752    -0.74500
Al49       Al  0.24508877  0.37135548  0.60895079     1.49000
C50         C  0.29846409  0.32722140  0.60326552     0.92900
O51         O  0.27552120  0.33156767  0.55849547    -0.80700
O52         O  0.21830135  0.40931834  0.55689336    -0.74200
Al53       Al  0.28472526  0.37137609  0.57160293     1.90100
O54         O  0.22373215  0.34212106  0.55088767    -0.73300
O55         O  0.18389170  0.39874817  0.58757797    -0.73200
O56         O  0.19267267  0.33124750  0.58253826    -0.78800
O57         O  0.21920206  0.41034345  0.61027390    -0.77000
O58         O  0.24585203  0.37110259  0.58370700    -1.13200
O59         O  0.28343463  0.39896746  0.61211427    -0.72400
C60         C  0.29988126  0.41655570  0.60079123     0.98400
C61         C  0.24998610  0.32540887  0.54883077     0.94800
Al62       Al  0.20790041  0.37044168  0.57063185     1.55600
O63         O  0.30799958  0.34446728  0.58948401    -0.77000
C64         C  0.19214237  0.41557242  0.60187767     0.98900
C65         C  0.24440013  0.41420536  0.54754800     0.93800
O66         O  0.27039865  0.39783338  0.55084473    -0.82300
O67         O  0.02477644  0.18234463  0.66296938    -0.81800
C68         C  0.45023858  0.06929783  0.65008873     0.97600
O69         O  0.45599228  0.09621848  0.64174658    -0.70900
O70         O  0.46997055  0.15971461  0.63968529    -0.74500
Al71       Al  0.99606641  0.12069797  0.64310551     1.49000
C72         C  0.45236431  0.17662566  0.65078036     0.92900
O73         O  0.46803896  0.14693455  0.70083236    -0.80700
O74         O  0.02362351  0.09868594  0.70133969    -0.74200
Al75       Al  0.49620216  0.16037625  0.68050145     1.90100
O76         O  0.45631795  0.09497821  0.69474807    -0.73300
O77         O  0.03479033  0.06775037  0.66962869    -0.73200
O78         O  0.46718424  0.06052816  0.66421379    -0.78800
O79         O  0.02218080  0.08147651  0.64063371    -0.77000
O80         O  0.49592258  0.12160140  0.66835999    -1.13200
O81         O  0.03621140  0.14502513  0.64137832    -0.72400
C82         C  0.04209993  0.17240043  0.64924745     0.98400
C83         C  0.45090745  0.12131277  0.70378704     0.94800
Al84       Al  0.99550254  0.08375366  0.68135365     1.55600
O85         O  0.45689865  0.17530684  0.66831422    -0.77000
C86         C  0.03947790  0.06516255  0.65214792     0.98900
C87         C  0.04087937  0.12444607  0.70360383     0.93800
O88         O  0.03527623  0.15019114  0.69413315    -0.82300
O89         O  0.31505107  0.09113825  0.41423759    -0.81800
C90         C  0.20135972  0.16568267  0.39972950     0.97600
O91         O  0.22877452  0.16040311  0.39177606    -0.70900
O92         O  0.29252399  0.14829225  0.39100145    -0.74500
Al93       Al  0.25416188  0.12119936  0.39336691     1.49000
C94         C  0.30955332  0.16483572  0.40255196     0.92900
O95         O  0.27765376  0.14747250  0.45179222    -0.80700
O96         O  0.22908515  0.09198481  0.45088875    -0.74200
Al97       Al  0.29222000  0.11960246  0.43149967     1.90100
O98         O  0.22579755  0.15897648  0.44492732    -0.73300
O99         O  0.19957133  0.08196922  0.41857617    -0.73200
O100        O  0.19251623  0.14920248  0.41392641    -0.78800
O101        O  0.21587169  0.09445038  0.39000527    -0.77000
O102        O  0.25385543  0.12052165  0.41863523    -1.13200
O103        O  0.27912449  0.08188478  0.39156294    -0.72400
C104        C  0.30558836  0.07475445  0.40005924     0.98400
C105        C  0.25161146  0.16419393  0.45450193     0.94800
Al106      Al  0.21518757  0.12055222  0.43100165     1.55600
O107        O  0.30847452  0.15880564  0.41994436    -0.77000
C108        C  0.19834566  0.07748538  0.40103591     0.98900
C109        C  0.25471291  0.07471486  0.45355711     0.93800
O110        O  0.28107444  0.08040687  0.44464762    -0.82300
O111        O  0.03158733  0.30891040  0.33919529    -0.81800
C112        C  0.45726576  0.42166364  0.35429517     0.97600
O113        O  0.46454278  0.39512763  0.36253461    -0.70900
O114        O  0.47606113  0.33185898  0.36274427    -0.74500
Al115      Al  0.00350291  0.36990056  0.36028419     1.49000
C116        C  0.45873996  0.31548364  0.35124645     0.92900
O117        O  0.47622989  0.34688615  0.30174467    -0.80700
O118        O  0.03156465  0.39553616  0.30275277    -0.74200
Al119      Al  0.50369725  0.33241180  0.32206203     1.90100
O120        O  0.46389973  0.39829804  0.30858090    -0.73300
O121        O  0.04072385  0.42575875  0.33492012    -0.73200
O122        O  0.47273562  0.43097381  0.33978853    -0.78800
O123        O  0.03073717  0.40778319  0.36345075    -0.77000
O124        O  0.00316960  0.37059300  0.33498479    -1.13200
O125        O  0.04264964  0.34455739  0.36166754    -0.72400
C126        C  0.04820333  0.31756512  0.35341754     0.98400
C127        C  0.45922761  0.37259740  0.29892694     0.94800
Al128      Al  0.00231559  0.40923586  0.32262344     1.55600
O129        O  0.46420134  0.31683110  0.33376847    -0.77000
C130        C  0.04666767  0.42603086  0.35231462     0.98900
C131        C  0.04883956  0.36986450  0.29997688     0.93800
O132        O  0.04311514  0.34349562  0.30888993    -0.82300
O133        O  0.05870687  0.16584928  0.08335534    -0.81800
C134        C  0.44615585  0.08644369  0.10209319     0.97600
O135        O  0.46586282  0.10136404  0.11289989    -0.70900
O136        O  0.02934106  0.09035517  0.11135100    -0.74500
Al137      Al  0.50334020  0.12901436  0.10942154     1.49000
C138        C  0.05515348  0.08266433  0.10244924     0.92900
O139        O  0.02989843  0.08977643  0.05659163    -0.80700
O140        O  0.47475581  0.16504113  0.05603644    -0.74200
Al141      Al  0.04133343  0.12767337  0.07104828     1.90100
O142        O  0.47639915  0.09740768  0.05278259    -0.73300
O143        O  0.44294035  0.16100764  0.08766281    -0.73200
O144        O  0.44550757  0.09267028  0.08478908    -0.78800
O145        O  0.47733751  0.16772272  0.11137391    -0.77000
O146        O  0.50271113  0.12852067  0.08394609    -1.13200
O147        O  0.04104443  0.15689815  0.11201663    -0.72400
C148        C  0.05907816  0.17256282  0.10067249     0.98400
C149        C  0.50285643  0.08220816  0.04878573     0.94800
Al150      Al  0.46360964  0.12897723  0.07151261     1.55600
O151        O  0.06343725  0.09782294  0.08768160    -0.77000
C152        C  0.45166488  0.17607574  0.10245557     0.98900
C153        C  0.50120831  0.17153999  0.04752098     0.93800
O154        O  0.02781808  0.15682633  0.05150861    -0.82300
O155        O  0.29060566  0.43397967  0.16941064    -0.81800
C156        C  0.20969868  0.32302678  0.15216987     0.97600
O157        O  0.22617989  0.34034725  0.14080885    -0.70900
O158        O  0.21118097  0.40333681  0.14305326    -0.74500
Al159      Al  0.25165346  0.37971767  0.14375796     1.49000
C160        C  0.20532697  0.43029434  0.15135499     0.92900
O161        O  0.21429274  0.40531114  0.19605575    -0.80700
O162        O  0.29423359  0.35181614  0.19437422    -0.77400
Al163      Al  0.25239910  0.41720571  0.18192860     1.90100
O164        O  0.22711048  0.35356766  0.20196243    -0.73300
O165        O  0.28345728  0.31909580  0.16331583    -0.73200
O166        O  0.21550669  0.32417254  0.16960743    -0.78800
O167        O  0.29212206  0.35623276  0.14128085    -0.77000
O168        O  0.25297712  0.37913257  0.16901916    -1.13200
O169        O  0.27660649  0.41928529  0.14074936    -0.72400
C170        C  0.29406170  0.43635599  0.15183185     0.98400
C171        C  0.20974297  0.37898093  0.20520324     0.94800
Al172      Al  0.25488160  0.34049219  0.18123394     1.55600
O173        O  0.22257424  0.43959491  0.16526311    -0.77000
C174        C  0.29943098  0.32922899  0.14913685     0.98900
C175        C  0.29962864  0.37778076  0.20371321     0.93800
O176        O  0.28189914  0.40322570  0.20146541    -0.82300
C177        C  0.10582846  0.22829245  0.12771796     0.29800
C178        C  0.11836232  0.24220797  0.14441364    -0.36500
C179        C  0.14357371  0.26583151  0.14224809     0.15800
C180        C  0.15530072  0.27540884  0.12482204     0.21600
C181        C  0.14254303  0.26173685  0.10811180    -0.34600
C182        C  0.11762081  0.23778571  0.11029025     0.15700
O183        O  0.08345539  0.20456790  0.12654361    -0.26700
C184        C  0.08091134  0.19865639  0.10814409     0.05500
C185        C  0.10151438  0.21866275  0.09730923    -0.31500
O186        O  0.17974334  0.29697632  0.12608971    -0.23400
C187        C  0.18385613  0.30115752  0.14454969    -0.03400
C188        C  0.16199142  0.28248210  0.15532740    -0.17800
H189        H  0.10967594  0.23449343  0.15814762     0.20200
H190        H  0.15200352  0.26866246  0.09440584     0.18600
H191        H  0.10465855  0.21858342  0.08216483     0.18500
H192        H  0.16032212  0.28101131  0.17052415     0.14400
C193        C  0.39730947  0.24237105  0.11107499     0.29800
C194        C  0.37492348  0.26793469  0.10664343    -0.36500
C195        C  0.35864987  0.28281113  0.12197988     0.15800
C196        C  0.36361240  0.27275771  0.14035593     0.21600
C197        C  0.38663039  0.24788983  0.14481747    -0.34600
C198        C  0.40331436  0.23347159  0.12954338     0.15700
O199        O  0.41372264  0.22366262  0.09895537    -0.26700
C200        C  0.43095523  0.20306407  0.10987055     0.05500
C201        C  0.42568483  0.20823138  0.12899858    -0.31500
O202        O  0.34384307  0.28805253  0.15233961    -0.23400
C203        C  0.32642781  0.30868335  0.14158098    -0.03400
C204        C  0.33477169  0.30677130  0.12258688    -0.17800
H205        H  0.36993275  0.27515422  0.09223522     0.20200
H206        H  0.39065198  0.23977257  0.15916796     0.18600
H207        H  0.43567553  0.19428905  0.14072854     0.18500
H208        H  0.32365196  0.31990127  0.11088114     0.14400
C209        C  0.35737777  0.49291872  0.14169599     0.29800
C210        C  0.38443670  0.01373769  0.14544967    -0.36500
C211        C  0.39730146  0.03091038  0.12995148     0.15800
C212        C  0.38444863  0.02792839  0.11197532     0.21600
C213        C  0.35743817  0.50702066  0.10819715    -0.34600
C214        C  0.34466512  0.48974435  0.12369405     0.15700
O215        O  0.34131303  0.47470111  0.15410881    -0.26700
C216        C  0.31819437  0.45953697  0.14386364     0.05500
C217        C  0.31910801  0.46791729  0.12487072    -0.31500
O218        O  0.40009165  0.04673261  0.09967374    -0.23400
C219        C  0.42325258  0.06186659  0.10993991    -0.03400
C220        C  0.42269796  0.05295795  0.12884662    -0.17800
H221        H  0.39466711  0.01645667  0.15947945     0.20200
H222        H  0.34705646  0.50447543  0.09419092     0.18600
H223        H  0.30307360  0.45931403  0.11361982     0.18500
H224        H  0.43848446  0.06178390  0.14015181     0.14400
C225        C  0.14878210  0.47713807  0.12523695     0.29800
C226        C  0.13384538  0.98955974  0.10883494    -0.36500
C227        C  0.11141816  0.01573424  0.11142965     0.15800
C228        C  0.10365343  0.02827281  0.12899799     0.21600
C229        C  0.11894317  0.51618158  0.14535821    -0.34600
C230        C  0.14188278  0.49050911  0.14272195     0.15700
O231        O  0.17122414  0.45342273  0.12604542    -0.26700
C232        C  0.17906401  0.45195079  0.14423036     0.05500
C233        C  0.16178367  0.47455204  0.15527411    -0.31500
O234        O  0.08214559  0.05280752  0.12816401    -0.23400
C235        C  0.07652252  0.05639896  0.10982339    -0.03400
C236        C  0.09413270  0.03416323  0.09869488    -0.17800
H237        H  0.13976749  0.97991345  0.09500361     0.20200
H238        H  0.11375944  0.52648322  0.15913362     0.18600
H239        H  0.16391627  0.47879606  0.17029371     0.18500
H240        H  0.09426939  0.03208981  0.08348565     0.14400
C241        C  0.10565623  0.38851513  0.26413807     0.29800
C242        C  0.12035653  0.40805852  0.25010297    -0.36500
C243        C  0.14526735  0.39273571  0.23939222     0.15800
C244        C  0.15517405  0.36041071  0.24231154     0.21600
C245        C  0.14050996  0.34085473  0.25640261    -0.34600
C246        C  0.11548976  0.35617246  0.26709320     0.15700
O247        O  0.08137471  0.39767209  0.27545318    -0.26700
C248        C  0.07548082  0.37087223  0.28581609     0.05500
C249        C  0.09602541  0.34428131  0.28127511    -0.31500
O250        O  0.17894248  0.35114969  0.23063082    -0.23400
C251        C  0.18429289  0.37789704  0.22008694    -0.03400
C252        C  0.16401648  0.40449943  0.22491224    -0.17800
H253        H  0.11271886  0.43338916  0.24761381     0.20200
H254        H  0.14794079  0.31543120  0.25878353     0.18600
H255        H  0.09617127  0.31967782  0.28732403     0.18500
H256        H  0.16334603  0.42897232  0.21870404     0.14400
C257        C  0.39873734  0.39032916  0.26495527     0.29800
C258        C  0.37597092  0.41000234  0.25504081    -0.36500
C259        C  0.35876419  0.39418884  0.24038797     0.15800
C260        C  0.36368203  0.36131638  0.23574609     0.21600
C261        C  0.38661622  0.34169788  0.24558149    -0.34600
C262        C  0.40372008  0.35747727  0.26028992     0.15700
O263        O  0.41725545  0.39993462  0.27928669    -0.26700
C264        C  0.43429288  0.37287639  0.28385229     0.05500
C265        C  0.42691542  0.34570435  0.27251815    -0.31500
O266        O  0.34406472  0.35132504  0.22197702    -0.23400
C267        C  0.32635563  0.37814277  0.21777514    -0.03400
C268        C  0.33452080  0.40558542  0.22871573    -0.17800
H269        H  0.37169122  0.43571748  0.25864269     0.20200
H270        H  0.39052330  0.31584392  0.24217032     0.18600
H271        H  0.43728460  0.32098361  0.27315803     0.18500
H272        H  0.32357312  0.43007759  0.22841465     0.14400
C273        C  0.11064025  0.25943616  0.36180187     0.29800
C274        C  0.13540041  0.23636442  0.35723339    -0.36500
C275        C  0.15059839  0.22046479  0.37252765     0.15800
C276        C  0.14138551  0.22617110  0.39099023     0.21600
C277        C  0.11697883  0.24955168  0.39556118    -0.34600
C278        C  0.10247559  0.26612208  0.38031796     0.15700
O279        O  0.09276235  0.27677596  0.34977812    -0.26700
C280        C  0.07356217  0.29526921  0.36080276     0.05500
C281        C  0.07860410  0.28988698  0.37990021    -0.31500
O282        O  0.15804325  0.20773087  0.40302212    -0.23400
C283        C  0.17873471  0.19063404  0.39215729    -0.03400
C284        C  0.17531056  0.19750035  0.37307408    -0.17800
H285        H  0.14234125  0.23121303  0.34279609     0.20200
H286        H  0.10985178  0.25451875  0.40999001     0.18600
H287        H  0.06570611  0.30105268  0.39168102     0.18500
H288        H  0.18850558  0.18650722  0.36134834     0.14400
C289        C  0.40353890  0.26915143  0.37848275     0.29800
C290        C  0.39045473  0.25607378  0.39520916    -0.36500
C291        C  0.36650254  0.23116422  0.39302365     0.15800
C292        C  0.35595098  0.22024624  0.37556543     0.21600
C293        C  0.36878748  0.23354572  0.35886193    -0.34600
C294        C  0.39297672  0.25816665  0.36104190     0.15700
O295        O  0.42752854  0.29117330  0.37723713    -0.26700
C296        C  0.43244758  0.29425793  0.35878828     0.05500
C297        C  0.41156437  0.27444846  0.34798452    -0.31500
O298        O  0.33435011  0.19590904  0.37674168    -0.23400
C299        C  0.33104951  0.19103285  0.39516399    -0.03400
C300        C  0.35038269  0.21229549  0.40604297    -0.17800
H301        H  0.39903686  0.26409619  0.40893911     0.20200
H302        H  0.36110278  0.22465439  0.34513414     0.18600
H303        H  0.41089996  0.27174338  0.33281147     0.18500
H304        H  0.35267058  0.21323400  0.42123356     0.14400
C305        C  0.36216804  0.01039954  0.39246804     0.29800
C306        C  0.38827096  0.48877980  0.39693422    -0.36500
C307        C  0.40157780  0.47079113  0.38181515     0.15800
C308        C  0.39025564  0.47414457  0.36353064     0.21600
C309        C  0.36337645  0.99483997  0.35919678    -0.34600
C310        C  0.34987001  0.01258703  0.37433354     0.15700
O311        O  0.34797667  0.03168231  0.40403423    -0.26700
C312        C  0.32601602  0.04728192  0.39320153     0.05500
C313        C  0.32577021  0.03616028  0.37466709    -0.31500
O314        O  0.40824914  0.45727140  0.35134202    -0.23400
C315        C  0.43087686  0.44241813  0.36203576    -0.03400
C316        C  0.42781607  0.44962076  0.38110164    -0.17800
H317        H  0.39829531  0.48701553  0.41105785     0.20200
H318        H  0.35441898  0.99782729  0.34491297     0.18600
H319        H  0.31120837  0.04539678  0.36296441     0.18500
H320        H  0.44361521  0.44161298  0.39258172     0.14400
C321        C  0.10865528  0.48452497  0.36157243     0.29800
C322        C  0.13221631  0.00898295  0.35741360    -0.36500
C323        C  0.14757043  0.02393890  0.37298518     0.15800
C324        C  0.14019658  0.01555636  0.39137339     0.21600
C325        C  0.11676543  0.49103693  0.39551918    -0.34600
C326        C  0.10154280  0.47598480  0.37996736     0.15700
O327        O  0.09065187  0.46783692  0.34926521    -0.26700
C328        C  0.07195023  0.44833919  0.35997587     0.05500
C329        C  0.07774306  0.45226133  0.37915444    -0.31500
O330        O  0.15715846  0.03308653  0.40374938    -0.23400
C331        C  0.17573338  0.05278461  0.39312508    -0.03400
C332        C  0.17082639  0.04823235  0.37389530    -0.17800
H333        H  0.13798116  0.01602607  0.34307777     0.20200
H334        H  0.11066473  0.48432344  0.40986127     0.18600
H335        H  0.06561724  0.43991261  0.39079683     0.18500
H336        H  0.18246177  0.06121709  0.36231554     0.14400
C337        C  0.26247770  0.46723915  0.51001633     0.29800
C338        C  0.28248381  0.48213382  0.49625486    -0.36500
C339        C  0.26745775  0.00736343  0.48570861     0.15800
C340        C  0.23493596  0.01706998  0.48845404     0.21600
C341        C  0.21485068  0.50195623  0.50207650    -0.34600
C342        C  0.22992682  0.47689121  0.51269927     0.15700
O343        O  0.27177040  0.44396519  0.52188857    -0.26700
C344        C  0.24486626  0.43870731  0.53232672     0.05500
C345        C  0.21799304  0.45836733  0.52720215    -0.31500
O346        O  0.22620498  0.04176046  0.47741745    -0.23400
C347        C  0.25344415  0.04797152  0.46746590    -0.03400
C348        C  0.27993169  0.02731362  0.47197129    -0.17800
H349        H  0.30811387  0.97495168  0.49415142     0.20200
H350        H  0.18943339  0.50961510  0.50444666     0.18600
H351        H  0.19345138  0.45912029  0.53339637     0.18500
H352        H  0.30478637  0.02736379  0.46617512     0.14400
C353        C  0.23516267  0.26772325  0.51294254     0.29800
C354        C  0.21670186  0.25179271  0.49883191    -0.36500
C355        C  0.23367396  0.22770475  0.48837524     0.15800
C356        C  0.26652778  0.21967634  0.49159789     0.21600
C357        C  0.28498016  0.23553312  0.50578365    -0.34600
C358        C  0.26801272  0.25973281  0.51622145     0.15700
O359        O  0.22442379  0.29154423  0.52408534    -0.26700
C360        C  0.25069990  0.29890412  0.53466966     0.05500
C361        C  0.27853227  0.27987700  0.53044161    -0.31500
O362        O  0.27739105  0.19643638  0.48005683    -0.23400
C363        C  0.25113999  0.18961786  0.46930519    -0.03400
C364        C  0.22326478  0.20829515  0.47385546    -0.17800
H365        H  0.19097948  0.25794907  0.49609306     0.20200
H366        H  0.31078717  0.22958781  0.50840978     0.18600
H367        H  0.30301588  0.28111293  0.53673035     0.18500
H368        H  0.19886372  0.20752730  0.46743785     0.14400
C369        C  0.10035085  0.21777802  0.62328617     0.29800
C370        C  0.11660981  0.22905021  0.60700299    -0.36500
C371        C  0.13674152  0.25719918  0.60928047     0.15800
C372        C  0.14098054  0.27275823  0.62645930     0.21600
C373        C  0.12471854  0.26157430  0.64267466    -0.34600
C374        C  0.10423616  0.23384348  0.64033964     0.15700
O375        O  0.07890897  0.19308449  0.62425349    -0.26700
C376        C  0.06875145  0.19371656  0.64209567     0.05500
C377        C  0.08372435  0.21848293  0.65274311    -0.31500
O378        O  0.16060870  0.29876579  0.62542346    -0.23400
C379        C  0.16889173  0.30015874  0.60732463    -0.03400
C380        C  0.15471675  0.27500129  0.59654818    -0.17800
H381        H  0.11319450  0.21719483  0.59344751     0.20200
H382        H  0.12728734  0.27408796  0.65609967     0.18600
H383        H  0.07933223  0.22482219  0.66735695     0.18500
H384        H  0.15729227  0.27056233  0.58157552     0.14400
C385        C  0.35981605  0.26801002  0.61227622     0.29800
C386        C  0.38792000  0.24872956  0.60838727    -0.36500
C387        C  0.39985360  0.22943204  0.62331427     0.15800
C388        C  0.38542301  0.22932414  0.64095212     0.21600
C389        C  0.35686397  0.24811998  0.64473374    -0.34600
C390        C  0.34469434  0.26719609  0.62972161     0.15700
O391        O  0.34543158  0.28897422  0.60063221    -0.26700
C392        C  0.32048115  0.30140369  0.61064864     0.05500
C393        C  0.31863729  0.28864233  0.62880629    -0.31500
O394        O  0.40184971  0.21072226  0.65307741    -0.23400
C395        C  0.42681471  0.19852179  0.64295166    -0.03400
C396        C  0.42668689  0.20913565  0.62433740    -0.17800
H397        H  0.39999440  0.24919756  0.59477483     0.20200
H398        H  0.34529515  0.24830759  0.65848830     0.18600
H399        H  0.30133968  0.29512438  0.63987601     0.18500
H400        H  0.44437149  0.20341217  0.61332715     0.14400
C401        C  0.39161812  0.02365393  0.62444881     0.29800
C402        C  0.37356410  0.01374852  0.60846522    -0.36500
C403        C  0.35386139  0.48532289  0.61058089     0.15800
C404        C  0.35171885  0.46815710  0.62734918     0.21600
C405        C  0.36993860  0.47789054  0.64326068    -0.34600
C406        C  0.38993293  0.00600447  0.64106985     0.15700
O407        O  0.41236479  0.04889009  0.62551558    -0.26700
C408        C  0.42424417  0.04712269  0.64299004     0.05500
C409        C  0.41123753  0.02091718  0.65328990    -0.31500
O410        O  0.33203246  0.44218172  0.62617203    -0.23400
C411        C  0.32169293  0.44244974  0.60837137    -0.03400
C412        C  0.33449820  0.46866467  0.59796283    -0.17800
H413        H  0.37516723  0.02696276  0.59524081     0.20200
H414        H  0.36896417  0.46420663  0.65635192     0.18600
H415        H  0.41707443  0.51366006  0.66759608     0.18500
H416        H  0.33027566  0.47442576  0.58326240     0.14400
C417        C  0.09080783  0.01343513  0.62546806     0.29800
C418        C  0.10132174  0.49677038  0.60918978    -0.36500
C419        C  0.12870224  0.47570916  0.61138115     0.15800
C420        C  0.14497417  0.47169156  0.62836240     0.21600
C421        C  0.13426478  0.98817795  0.64470457    -0.34600
C422        C  0.10655206  0.00892126  0.64256830     0.15700
O423        O  0.06548533  0.03395812  0.62662448    -0.26700
C424        C  0.06473791  0.04249890  0.64472245     0.05500
C425        C  0.08963314  0.02763776  0.65537219    -0.31500
O426        O  0.16993498  0.45063232  0.62717825    -0.23400
C427        C  0.16937009  0.44081729  0.60926453    -0.03400
C428        C  0.14418676  0.45550380  0.59878523    -0.17800
H429        H  0.08879474  0.49975574  0.59579386     0.20200
H430        H  0.14645952  0.98479299  0.65816626     0.18600
H431        H  0.09451720  0.03030610  0.67030063     0.18500
H432        H  0.13808941  0.45162914  0.58408412     0.14400
C433        C  0.14621919  0.13830296  0.76126560     0.29800
C434        C  0.13084884  0.15708285  0.74712692    -0.36500
C435        C  0.10673928  0.14057635  0.73639811     0.15800
C436        C  0.09834286  0.10782783  0.73935745     0.21600
C437        C  0.11387032  0.08897078  0.75342558    -0.34600
C438        C  0.13792734  0.10552003  0.76419854     0.15700
O439        O  0.16934112  0.14882243  0.77297663    -0.26700
C440        C  0.17595190  0.12246005  0.78355156     0.05500
C441        C  0.15714728  0.09478312  0.77875700    -0.31500
O442        O  0.07441155  0.09770014  0.72805462    -0.23400
C443        C  0.06744116  0.12430096  0.71773640    -0.03400
C444        C  0.08686391  0.15167221  0.72223500    -0.17800
H445        H  0.13706207  0.18283288  0.74476423     0.20200
H446        H  0.10740553  0.06332101  0.75591899     0.18600
H447        H  0.15777552  0.07033236  0.78499430     0.18500
H448        H  0.08593464  0.17628610  0.71621907     0.14400
C449        C  0.39515207  0.13977833  0.74024160     0.29800
C450        C  0.38022737  0.15935218  0.75425359    -0.36500
C451        C  0.35590288  0.14366923  0.76521870     0.15800
C452        C  0.34692045  0.11098634  0.76255392     0.21600
C453        C  0.36182824  0.09143220  0.74856287    -0.34600
C454        C  0.38609474  0.10711312  0.73759610     0.15700
O455        O  0.41875769  0.14922554  0.72855640    -0.26700
C456        C  0.42487435  0.12226915  0.71828959     0.05500
C457        C  0.40521537  0.09533284  0.72325676    -0.31500
O458        O  0.32331448  0.10145584  0.77417504    -0.23400
C459        C  0.31703333  0.12834142  0.78444221    -0.03400
C460        C  0.33661213  0.15538958  0.77953885    -0.17800
H461        H  0.38710386  0.18499542  0.75644873     0.20200
H462        H  0.35493377  0.06579354  0.74636251     0.18600
H463        H  0.40539215  0.07058513  0.71735262     0.18500
H464        H  0.33628753  0.18011847  0.78546365     0.14400
C465        C  0.48579228  0.47888043  0.98988626     0.29800
C466        C  0.46663714  0.49815831  0.00224339    -0.36500
C467        C  0.48425921  0.01967120  0.01415112     0.15800
C468        C  0.01846132  0.02190978  0.01408055     0.21600
C469        C  0.03767164  0.00274010  0.00161263    -0.34600
C470        C  0.01997779  0.48138832  0.98955383     0.15700
O471        O  0.47431385  0.45723501  0.97754062    -0.26700
C472        C  0.50142394  0.44585121  0.96900361     0.05500
C473        C  0.03059991  0.46000275  0.97590046    -0.31500
O474        O  0.02968143  0.04373180  0.02645562    -0.23400
C475        C  0.50225777  0.05572923  0.03445587    -0.03400
C476        C  0.47330013  0.04170639  0.02729867    -0.17800
H477        H  0.43980516  0.49659852  0.00249364     0.20200
H478        H  0.06448990  0.00447368  0.00127060     0.18600
H479        H  0.05588783  0.45504116  0.97157503     0.18500
H480        H  0.44787635  0.04712666  0.03117063     0.14400
C481        C  0.48207615  0.22816578  0.01195955     0.29800
C482        C  0.46134863  0.24697404  0.00022449    -0.36500
C483        C  0.47749383  0.26789501  0.98744546     0.15800
C484        C  0.01165905  0.27023235  0.98637680     0.21600
C485        C  0.03236920  0.25106477  0.99790822    -0.34600
C486        C  0.01623617  0.23007333  0.01063148     0.15700
O487        O  0.47232343  0.20759420  0.02521857    -0.26700
C488        C  0.50059234  0.19609423  0.03238622     0.05500
C489        C  0.02873492  0.20904897  0.02381315    -0.31500
O490        O  0.02146911  0.29244729  0.97403416    -0.23400
C491        C  0.99325829  0.30429857  0.96700189    -0.03400
C492        C  0.46505780  0.28984047  0.97471670    -0.17800
H493        H  0.43454961  0.24571552  0.00117270     0.20200
H494        H  0.05916691  0.25277512  0.99720130     0.18600
H495        H  0.05454277  0.20391900  0.02696495     0.18500
H496        H  0.43926968  0.29541369  0.97176615     0.14400
C497        C  0.13617557  0.23993829  0.85905749     0.29800
C498        C  0.11383230  0.26567716  0.85516904    -0.36500
C499        C  0.09770021  0.27946144  0.87082473     0.15800
C500        C  0.10318377  0.26873692  0.88904153     0.21600
C501        C  0.12527187  0.24288267  0.89290997    -0.34600
C502        C  0.14131830  0.22910525  0.87728261     0.15700
O503        O  0.15507369  0.22433763  0.84672079    -0.26700
C504        C  0.17237450  0.20328753  0.85726608     0.05500
C505        C  0.16470495  0.20507905  0.87633005    -0.31500
O506        O  0.08624253  0.28581015  0.90158990    -0.23400
C507        C  0.06957049  0.30761839  0.89125932    -0.03400
C508        C  0.07566235  0.30484698  0.87203892    -0.17800
H509        H  0.10973233  0.27468793  0.84100014     0.20200
H510        H  0.13002756  0.23446070  0.90713360     0.18600
H511        H  0.17555912  0.19130053  0.88787988     0.18500
H512        H  0.06575531  0.31979054  0.86069169     0.14400
C513        C  0.35339195  0.23374265  0.86293185     0.29800
C514        C  0.37980917  0.25497194  0.85841934    -0.36500
C515        C  0.39373014  0.27273246  0.87349709     0.15800
C516        C  0.38208204  0.27024234  0.89172323     0.21600
C517        C  0.35618496  0.24838012  0.89631574    -0.34600
C518        C  0.34264514  0.23016965  0.88128194     0.15700
O519        O  0.33572651  0.21605078  0.85090661    -0.26700
C520        C  0.31388165  0.20037920  0.86174494     0.05500
C521        C  0.31712147  0.20798280  0.88077416    -0.31500
O522        O  0.39732201  0.29076835  0.90338241    -0.23400
C523        C  0.41940320  0.30617581  0.89253833    -0.03400
C524        C  0.41846983  0.29575737  0.87385158    -0.17800
H525        H  0.38849644  0.25790060  0.84409438     0.20200
H526        H  0.34685557  0.24615786  0.91055143     0.18600
H527        H  0.30195543  0.19946103  0.89237714     0.18500
H528        H  0.43304910  0.30478323  0.86213053     0.14400
C529        C  0.38226066  0.48600358  0.89255904     0.29800
C530        C  0.35857486  0.01053068  0.89644779    -0.36500
C531        C  0.34404295  0.02570216  0.88069612     0.15800
C532        C  0.35231569  0.01744794  0.86239580     0.21600
C533        C  0.37615897  0.49320125  0.85851802    -0.34600
C534        C  0.39053636  0.47797496  0.87423142     0.15700
O535        O  0.39815599  0.46766415  0.90504529    -0.26700
C536        C  0.41679239  0.44779334  0.89447924     0.05500
C537        C  0.41306264  0.45315707  0.87525493    -0.31500
O538        O  0.33454392  0.03360338  0.84982229    -0.23400
C539        C  0.31463747  0.05243260  0.86020713    -0.03400
C540        C  0.31950375  0.04869519  0.87949402    -0.17800
H541        H  0.35145778  0.01683036  0.91071015     0.20200
H542        H  0.38251761  0.48616838  0.84424762     0.18600
H543        H  0.42487757  0.44019616  0.86369831     0.18500
H544        H  0.30617068  0.06046497  0.89092423     0.14400
C545        C  0.15294842  0.00586850  0.86775258     0.29800
C546        C  0.14821023  0.47374134  0.87463460    -0.36500
C547        C  0.11611383  0.46625608  0.88083322     0.15800
C548        C  0.09005613  0.48843327  0.87980594     0.21600
C549        C  0.09490628  0.02082924  0.87311147    -0.34600
C550        C  0.12737247  0.02867471  0.86741678     0.15700
O551        O  0.18122129  0.01825418  0.86172428    -0.26700
C552        C  0.17392417  0.04959304  0.85784355     0.05500
C553        C  0.14085710  0.05764948  0.86115809    -0.31500
O554        O  0.06194443  0.47569894  0.88607993    -0.23400
C555        C  0.07051923  0.44533987  0.89154455    -0.03400
C556        C  0.10385190  0.43819473  0.88870217    -0.17800
H557        H  0.16830875  0.45597890  0.87539229     0.20200
H558        H  0.07494079  0.03876523  0.87264943     0.18600
H559        H  0.12866410  0.08129996  0.85920424     0.18500
H560        H  0.11693515  0.41536843  0.89171493     0.14400
O561        O  0.44058406  0.91701189  0.91955621    -0.81800
C562        C  0.04796152  0.83276940  0.89957371     0.97600
O563        O  0.03186171  0.85183788  0.88892073    -0.70900
O564        O  0.46794540  0.83907302  0.89104152    -0.74500
Al565      Al  0.99339979  0.87842372  0.89302666     1.49000
C566        C  0.44126295  0.83265235  0.89961708     0.92900
O567        O  0.46628521  0.83849039  0.94479372    -0.80700
O568        O  0.02554843  0.91335438  0.94473508    -0.74200
Al569      Al  0.45633376  0.87753269  0.93124818     1.90100
O570        O  0.01932771  0.84648816  0.94987588    -0.73300
O571        O  0.05678207  0.90252436  0.91257151    -0.73200
O572        O  0.04625640  0.83566205  0.91718962    -0.78800
O573        O  0.01854010  0.91832384  0.89237918    -0.77000
O574        O  0.99430592  0.87690708  0.91822286    -1.13200
O575        O  0.45507655  0.90491068  0.89071764    -0.72400
C576        C  0.43860763  0.92208122  0.90211317     0.98400
C577        C  0.99281859  0.83104799  0.95311973     0.94800
Al578      Al  0.03350518  0.87475677  0.93008170     1.55600
O579        O  0.43265522  0.84902690  0.91404221    -0.77000
C580        C  0.04715584  0.92127900  0.89940701     0.98900
C581        C  0.49988725  0.92038207  0.95410607     0.93800
O582        O  0.47269239  0.90562238  0.95107139    -0.82300
O583        O  0.20541921  0.68118652  0.83261164    -0.81800
C584        C  0.28880124  0.57334288  0.85196607     0.97600
O585        O  0.26906554  0.58851179  0.86274929    -0.70900
O586        O  0.28024159  0.65248829  0.86244860    -0.74500
Al587      Al  0.24154111  0.62647765  0.85908439     1.49000
C588        C  0.28785653  0.67887386  0.85399399     0.92900
O589        O  0.28491268  0.65465951  0.80812477    -0.80700
O590        O  0.20760400  0.59706689  0.80758591    -0.74200
Al591      Al  0.24518766  0.66493474  0.82131235     1.90100
O592        O  0.27429220  0.60282058  0.80155949    -0.73300
O593        O  0.21929354  0.56344221  0.83869788    -0.73200
O594        O  0.28592777  0.57521629  0.83431368    -0.78800
O595        O  0.20177572  0.60102155  0.85861830    -0.77000
O596        O  0.24455680  0.62671384  0.83396252    -1.13200
O597        O  0.21411572  0.66391522  0.86136013    -0.72400
C598        C  0.19845406  0.68162396  0.84988295     0.98400
C599        C  0.29091521  0.62875290  0.79886925     0.94800
Al600      Al  0.24660129  0.58807491  0.82160099     1.55600
O601        O  0.27322523  0.68747459  0.83901029    -0.77000
C602        C  0.19921409  0.57278147  0.85122525     0.98900
C603        C  0.20151382  0.62298726  0.79827964     0.93800
O604        O  0.21752365  0.64949477  0.80111796    -0.82300
O605        O  0.29843949  0.91147836  0.58328875    -0.81800
C606        C  0.19062813  0.82626375  0.59999489     0.97600
O607        O  0.20672262  0.84384970  0.61151385    -0.70900
O608        O  0.27069858  0.83227420  0.61086746    -0.74500
Al609      Al  0.24508878  0.87135539  0.60895074     1.49000
C610        C  0.29846404  0.82722130  0.60326548     0.92900
O611        O  0.27552120  0.83156755  0.55849545    -0.80700
O612        O  0.21830139  0.90931827  0.55689332    -0.74200
Al613      Al  0.28472527  0.87137600  0.57160288     1.90100
O614        O  0.22373216  0.84212095  0.55088763    -0.73300
O615        O  0.18389175  0.89874814  0.58757793    -0.73200
O616        O  0.19267267  0.83124744  0.58253821    -0.78800
O617        O  0.21920216  0.91034343  0.61027382    -0.77000
O618        O  0.24585204  0.87110250  0.58370695    -1.13200
O619        O  0.28343471  0.89896728  0.61211422    -0.72400
C620        C  0.29988131  0.91655558  0.60079119     0.98400
C621        C  0.24998609  0.82540874  0.54883075     0.94800
Al622      Al  0.20790043  0.87044161  0.57063180     1.55600
O623        O  0.30799956  0.84446722  0.58948400    -0.77000
C624        C  0.19214248  0.91557244  0.60187760     0.98900
C625        C  0.24440017  0.91420529  0.54754795     0.93800
O626        O  0.27039866  0.89783326  0.55084466    -0.82300
O627        O  0.02477645  0.68234462  0.66296936    -0.81800
C628        C  0.45023849  0.56929799  0.65008868     0.97600
O629        O  0.45599220  0.59621866  0.64174657    -0.70900
O630        O  0.46997062  0.65971475  0.63968529    -0.74500
Al631      Al  0.99606632  0.62069801  0.64310553     1.49000
C632        C  0.45236438  0.67662579  0.65078036     0.92900
O633        O  0.46803892  0.64693466  0.70083236    -0.80700
O634        O  0.02362325  0.59868600  0.70133973    -0.74200
Al635      Al  0.49620215  0.66037631  0.68050146     1.90100
O636        O  0.45631778  0.59497835  0.69474802    -0.73300
O637        O  0.03479021  0.56775048  0.66962875    -0.73200
O638        O  0.46718412  0.56052828  0.66421375    -0.78800
O639        O  0.02218063  0.58147644  0.64063376    -0.77000
O640        O  0.49592251  0.62160148  0.66835999    -1.13200
O641        O  0.03621138  0.64502506  0.64137834    -0.72400
C642        C  0.04209993  0.67240038  0.64924744     0.98400
C643        C  0.45090736  0.62131290  0.70378702     0.94800
Al644      Al  0.99550236  0.58375376  0.68135366     1.55600
O645        O  0.45689869  0.67530696  0.66831422    -0.77000
C646        C  0.03947778  0.56516257  0.65214798     0.98900
C647        C  0.04087919  0.62444608  0.70360386     0.93800
O648        O  0.03527616  0.65019114  0.69413315    -0.82300
O649        O  0.31505121  0.59113839  0.41423750    -0.81800
C650        C  0.20135968  0.66568251  0.39972951     0.97600
O651        O  0.22877452  0.66040308  0.39177608    -0.70900
O652        O  0.29252405  0.64829220  0.39100143    -0.74500
Al653      Al  0.25416192  0.62119933  0.39336690     1.49000
C654        C  0.30955332  0.66483574  0.40255194     0.92900
O655        O  0.27765387  0.64747239  0.45179222    -0.80700
O656        O  0.22908534  0.59198465  0.45088872    -0.74200
Al657      Al  0.29222010  0.61960245  0.43149964     1.90100
O658        O  0.22579763  0.65897631  0.44492734    -0.73300
O659        O  0.19957149  0.58196905  0.41857614    -0.73200
O660        O  0.19251625  0.64920229  0.41392642    -0.78800
O661        O  0.21587174  0.59445036  0.39000525    -0.77000
O662        O  0.25385551  0.62052159  0.41863521    -1.13200
O663        O  0.27912450  0.58188475  0.39156293    -0.72400
C664        C  0.30558844  0.57475451  0.40005918     0.98400
C665        C  0.25161156  0.66419380  0.45450192     0.94800
Al666      Al  0.21518768  0.62055205  0.43100165     1.55600
O667        O  0.30847446  0.65880571  0.41994435    -0.77000
C668        C  0.19834576  0.57748529  0.40103588     0.98900
C669        C  0.25471313  0.57471476  0.45355708     0.93800
O670        O  0.28107465  0.58040678  0.44464758    -0.82300
O671        O  0.03158736  0.80891027  0.33919524    -0.81800
C672        C  0.45726575  0.92166349  0.35429519     0.97600
O673        O  0.46454285  0.89512751  0.36253463    -0.70900
O674        O  0.47606134  0.83185887  0.36274431    -0.74500
Al675      Al  0.00350308  0.86990048  0.36028416     1.49000
C676        C  0.45874005  0.81548362  0.35124652     0.92900
O677        O  0.47622988  0.84688598  0.30174468    -0.80700
O678        O  0.03156480  0.89553602  0.30275276    -0.74200
Al679      Al  0.50369727  0.83241168  0.32206204     1.90100
O680        O  0.46389968  0.89829783  0.30858094    -0.73300
O681        O  0.04072401  0.92575865  0.33492007    -0.73200
O682        O  0.47273559  0.93097367  0.33978854    -0.78800
O683        O  0.03073738  0.90778306  0.36345070    -0.77000
O684        O  0.00316971  0.87059289  0.33498476    -1.13200
O685        O  0.04264979  0.84455728  0.36166746    -0.72400
C686        C  0.04820339  0.81756498  0.35341748     0.98400
C687        C  0.45922754  0.87259719  0.29892698     0.94800
Al688      Al  0.00231574  0.90923576  0.32262340     1.55600
O689        O  0.46420137  0.81683106  0.33376853    -0.77000
C690        C  0.04666789  0.92603072  0.35231457     0.98900
C691        C  0.04883965  0.86986432  0.29997685     0.93800
O692        O  0.04311515  0.84349542  0.30888986    -0.82300
O693        O  0.05870668  0.66584927  0.08335541    -0.81800
C694        C  0.44615571  0.58644356  0.10209319     0.97600
O695        O  0.46586270  0.60136391  0.11289988    -0.70900
O696        O  0.02934096  0.59035501  0.11135094    -0.74500
Al697      Al  0.50334006  0.62901425  0.10942152     1.49000
C698        C  0.05515336  0.58266420  0.10244915     0.92900
O699        O  0.02989839  0.58977649  0.05659156    -0.80700
O700        O  0.47475568  0.66504087  0.05603637    -0.74200
Al701      Al  0.04133332  0.62767337  0.07104828     1.90100
O702        O  0.47639911  0.59740743  0.05278263    -0.73300
O703        O  0.44294020  0.66100739  0.08766275    -0.73200
O704        O  0.44550745  0.59267010  0.08478908    -0.78800
O705        O  0.47733731  0.66772255  0.11137388    -0.77000
O706        O  0.50271101  0.62852056  0.08394608    -1.13200
O707        O  0.04104427  0.65689802  0.11201669    -0.72400
C708        C  0.05907795  0.67256278  0.10067257     0.98400
C709        C  0.50285643  0.58220801  0.04878576     0.94800
Al710      Al  0.46360954  0.62897701  0.07151258     1.55600
O711        O  0.06343714  0.59782288  0.08768154    -0.77000
C712        C  0.45166466  0.67607548  0.10245553     0.98900
C713        C  0.50120822  0.67153988  0.04752098     0.93800
O714        O  0.02781798  0.65682640  0.05150866    -0.82300
O715        O  0.29060575  0.93397969  0.16941052    -0.81800
C716        C  0.20969864  0.82302683  0.15216983     0.97600
O717        O  0.22617985  0.84034725  0.14080879    -0.70900
O718        O  0.21118101  0.90333684  0.14305322    -0.74500
Al719      Al  0.25165348  0.87971765  0.14375789     1.49000
C720        C  0.20532701  0.93029433  0.15135500     0.92900
O721        O  0.21429289  0.90531115  0.19605575    -0.80700
O722        O  0.29423368  0.85181615  0.19437419    -0.77400
Al723      Al  0.25239922  0.91720571  0.18192854     1.90100
O724        O  0.22711055  0.85356764  0.20196238    -0.73300
O725        O  0.28345734  0.81909580  0.16331580    -0.73200
O726        O  0.21550675  0.82417254  0.16960738    -0.78800
O727        O  0.29212206  0.85623268  0.14128076    -0.77000
O728        O  0.25297721  0.87913256  0.16901911    -1.13200
O729        O  0.27660655  0.91928525  0.14074926    -0.72400
C730        C  0.29406177  0.93635599  0.15183173     0.98400
C731        C  0.20974307  0.87898091  0.20520322     0.94800
Al732      Al  0.25488167  0.84049218  0.18123389     1.55600
O733        O  0.22257433  0.93959487  0.16526310    -0.77000
C734        C  0.29943100  0.82922894  0.14913680     0.98900
C735        C  0.29962876  0.87778079  0.20371315     0.93800
O736        O  0.28189932  0.90322575  0.20146532    -0.82300
C737        C  0.10582824  0.72829248  0.12771806     0.29800
C738        C  0.11836223  0.74220797  0.14441372    -0.36500
C739        C  0.14357350  0.76583166  0.14224814     0.15800
C740        C  0.15530028  0.77540915  0.12482207     0.21600
C741        C  0.14254243  0.76173721  0.10811185    -0.34600
C742        C  0.11762035  0.73778594  0.11029033     0.15700
O743        O  0.08345529  0.70456781  0.12654372    -0.26700
C744        C  0.08091108  0.69865642  0.10814419     0.05500
C745        C  0.10151390  0.71866297  0.09730931    -0.31500
O746        O  0.17974292  0.79697662  0.12608970    -0.23400
C747        C  0.18385595  0.80115766  0.14454968    -0.03400
C748        C  0.16199137  0.78248215  0.15532742    -0.17800
H749        H  0.10967607  0.73449328  0.15814772     0.20200
H750        H  0.15200275  0.76866294  0.09440587     0.18600
H751        H  0.10465793  0.71858378  0.08216490     0.18500
H752        H  0.16032226  0.78101121  0.17052418     0.14400
C753        C  0.39730904  0.74237056  0.11107494     0.29800
C754        C  0.37492304  0.76793417  0.10664338    -0.36500
C755        C  0.35864961  0.78281077  0.12197983     0.15800
C756        C  0.36361229  0.77275753  0.14035590     0.21600
C757        C  0.38663026  0.74788963  0.14481744    -0.34600
C758        C  0.40331407  0.73347123  0.12954334     0.15700
O759        O  0.41372218  0.72366211  0.09895532    -0.26700
C760        C  0.43095488  0.70306367  0.10987051     0.05500
C761        C  0.42568457  0.70823105  0.12899855    -0.31500
O762        O  0.34384310  0.78805251  0.15233958    -0.23400
C763        C  0.32642778  0.80868325  0.14158093    -0.03400
C764        C  0.33477149  0.80677098  0.12258681    -0.17800
H765        H  0.36993220  0.77515362  0.09223516     0.20200
H766        H  0.39065198  0.73977250  0.15916794     0.18600
H767        H  0.43567542  0.69428884  0.14072850     0.18500
H768        H  0.32365165  0.81990080  0.11088106     0.14400
C769        C  0.35737788  0.99291875  0.14169589     0.29800
C770        C  0.38443653  0.51373773  0.14544977    -0.36500
C771        C  0.39730133  0.53091032  0.12995155     0.15800
C772        C  0.38444862  0.52792814  0.11197537     0.21600
C773        C  0.35743812  0.00702099  0.10819709    -0.34600
C774        C  0.34466513  0.98974456  0.12369396     0.15700
O775        O  0.34131318  0.97470105  0.15410868    -0.26700
C776        C  0.31819445  0.95953700  0.14386352     0.05500
C777        C  0.31910800  0.96791749  0.12487062    -0.31500
O778        O  0.40009165  0.54673230  0.09967377    -0.23400
C779        C  0.42325245  0.56186646  0.10993994    -0.03400
C780        C  0.42269775  0.55295798  0.12884667    -0.17800
H781        H  0.39466684  0.51645685  0.15947956     0.20200
H782        H  0.34705633  0.00447588  0.09419087     0.18600
H783        H  0.30307351  0.95931436  0.11361973     0.18500
H784        H  0.43848412  0.56178411  0.14015186     0.14400
C785        C  0.14878213  0.97713816  0.12523705     0.29800
C786        C  0.13384527  0.48955955  0.10883482    -0.36500
C787        C  0.11141807  0.51573409  0.11142952     0.15800
C788        C  0.10365343  0.52827276  0.12899785     0.21600
C789        C  0.11894308  0.01618151  0.14535836    -0.34600
C790        C  0.14188271  0.99050905  0.14272208     0.15700
O791        O  0.17122421  0.95342285  0.12604549    -0.26700
C792        C  0.17906402  0.95195079  0.14423043     0.05500
C793        C  0.16178359  0.97455191  0.15527423    -0.31500
O794        O  0.08214557  0.55280744  0.12816387    -0.23400
C795        C  0.07652240  0.55639881  0.10982326    -0.03400
C796        C  0.09413253  0.53416303  0.09869474    -0.17800
H797        H  0.13976731  0.47991316  0.09500351     0.20200
H798        H  0.11375928  0.02648304  0.15913378     0.18600
H799        H  0.16391614  0.97879583  0.17029384     0.18500
H800        H  0.09426916  0.53208955  0.08348552     0.14400
C801        C  0.10565635  0.88851498  0.26413805     0.29800
C802        C  0.12035659  0.90805836  0.25010293    -0.36500
C803        C  0.14526741  0.89273557  0.23939218     0.15800
C804        C  0.15517418  0.86041060  0.24231153     0.21600
C805        C  0.14051014  0.84085462  0.25640261    -0.34600
C806        C  0.11548992  0.85617232  0.26709320     0.15700
O807        O  0.08137482  0.89767192  0.27545317    -0.26700
C808        C  0.07548097  0.87087207  0.28581609     0.05500
C809        C  0.09602560  0.84428116  0.28127513    -0.31500
O810        O  0.17894265  0.85114963  0.23063081    -0.23400
C811        C  0.18429299  0.87789697  0.22008691    -0.03400
C812        C  0.16401652  0.90449932  0.22491219    -0.17800
H813        H  0.11271887  0.93338897  0.24761374     0.20200
H814        H  0.14794103  0.81543112  0.25878356     0.18600
H815        H  0.09617148  0.81967769  0.28732406     0.18500
H816        H  0.16334599  0.92897217  0.21870397     0.14400
C817        C  0.39873711  0.89032896  0.26495542     0.29800
C818        C  0.37597080  0.91000222  0.25504093    -0.36500
C819        C  0.35876410  0.89418877  0.24038806     0.15800
C820        C  0.36368182  0.86131627  0.23574622     0.21600
C821        C  0.38661587  0.84169770  0.24558167    -0.34600
C822        C  0.40371976  0.85747705  0.26029010     0.15700
O823        O  0.41725531  0.89993441  0.27928681    -0.26700
C824        C  0.43429271  0.87287616  0.28385240     0.05500
C825        C  0.42691512  0.84570410  0.27251830    -0.31500
O826        O  0.34406459  0.85132500  0.22197709    -0.23400
C827        C  0.32635568  0.87814279  0.21777513    -0.03400
C828        C  0.33452089  0.90558545  0.22871572    -0.17800
H829        H  0.37169124  0.93571740  0.25864277     0.20200
H830        H  0.39052290  0.81584373  0.24217050     0.18600
H831        H  0.43728429  0.82098335  0.27315817     0.18500
H832        H  0.32357336  0.93007768  0.22841457     0.14400
C833        C  0.11064036  0.75943612  0.36180184     0.29800
C834        C  0.13540083  0.73636470  0.35723339    -0.36500
C835        C  0.15059847  0.72046473  0.37252764     0.15800
C836        C  0.14138496  0.72617042  0.39099018     0.21600
C837        C  0.11697796  0.74955068  0.39556112    -0.34600
C838        C  0.10247508  0.76612143  0.38031792     0.15700
O839        O  0.09276272  0.77677618  0.34977809    -0.26700
C840        C  0.07356212  0.79526900  0.36080272     0.05500
C841        C  0.07860348  0.78988622  0.37990016    -0.31500
O842        O  0.15804253  0.70773002  0.40302207    -0.23400
C843        C  0.17873453  0.69063375  0.39215728    -0.03400
C844        C  0.17531087  0.69750054  0.37307410    -0.17800
H845        H  0.14234218  0.73121380  0.34279610     0.20200
H846        H  0.10985044  0.75451728  0.40998993     0.18600
H847        H  0.06570508  0.80105152  0.39168096     0.18500
H848        H  0.18850643  0.68650792  0.36134838     0.14400
C849        C  0.40353889  0.76915153  0.37848283     0.29800
C850        C  0.39045473  0.75607382  0.39520922    -0.36500
C851        C  0.36650254  0.73116425  0.39302369     0.15800
C852        C  0.35595101  0.72024630  0.37556545     0.21600
C853        C  0.36878749  0.73354584  0.35886197    -0.34600
C854        C  0.39297671  0.75816679  0.36104197     0.15700
O855        O  0.42752855  0.79117337  0.37723722    -0.26700
C856        C  0.43244760  0.79425802  0.35878836     0.05500
C857        C  0.41156436  0.77444861  0.34798460    -0.31500
O858        O  0.33435014  0.69590909  0.37674168    -0.23400
C859        C  0.33104949  0.69103288  0.39516398    -0.03400
C860        C  0.35038267  0.71229550  0.40604298    -0.17800
H861        H  0.39903688  0.76409618  0.40893917     0.20200
H862        H  0.36110279  0.72465456  0.34513418     0.18600
H863        H  0.41089996  0.77174354  0.33281155     0.18500
H864        H  0.35267054  0.71323397  0.42123358     0.14400
C865        C  0.36216820  0.51039973  0.39246799     0.29800
C866        C  0.38827066  0.98877943  0.39693428    -0.36500
C867        C  0.40157762  0.97079089  0.38181519     0.15800
C868        C  0.39025572  0.97414464  0.36353065     0.21600
C869        C  0.36337623  0.49483972  0.35919679    -0.34600
C870        C  0.34986992  0.51258693  0.37433353     0.15700
O871        O  0.34797693  0.53168260  0.40403414    -0.26700
C872        C  0.32601609  0.54728199  0.39320147     0.05500
C873        C  0.32577005  0.53616011  0.37466708    -0.31500
O874        O  0.40824929  0.95727154  0.35134202    -0.23400
C875        C  0.43087679  0.94241797  0.36203578    -0.03400
C876        C  0.42781577  0.94962036  0.38110168    -0.17800
H877        H  0.39829483  0.98701493  0.41105794     0.20200
H878        H  0.35441859  0.49782685  0.34491300     0.18600
H879        H  0.31120803  0.54539640  0.36296443     0.18500
H880        H  0.44361470  0.94161233  0.39258179     0.14400
C881        C  0.10865545  0.98452483  0.36157243     0.29800
C882        C  0.13221630  0.50898294  0.35741358    -0.36500
C883        C  0.14757045  0.52393892  0.37298514     0.15800
C884        C  0.14019644  0.51555654  0.39137336     0.21600
C885        C  0.11676572  0.99103659  0.39551919    -0.34600
C886        C  0.10154310  0.97598450  0.37996735     0.15700
O887        O  0.09065203  0.96783684  0.34926519    -0.26700
C888        C  0.07195049  0.94833898  0.35997583     0.05500
C889        C  0.07774341  0.95226097  0.37915439    -0.31500
O890        O  0.15715835  0.53308668  0.40374934    -0.23400
C891        C  0.17573348  0.55278455  0.39312504    -0.03400
C892        C  0.17082659  0.54823220  0.37389526    -0.17800
H893        H  0.13798129  0.51602591  0.34307774     0.20200
H894        H  0.11066509  0.98432298  0.40986127     0.18600
H895        H  0.06561766  0.93991213  0.39079677     0.18500
H896        H  0.18246213  0.56121679  0.36231549     0.14400
C897        C  0.26247767  0.96723917  0.51001629     0.29800
C898        C  0.28248375  0.98213389  0.49625482    -0.36500
C899        C  0.26745789  0.50736342  0.48570867     0.15800
C900        C  0.23493613  0.51707009  0.48845412     0.21600
C901        C  0.21485054  0.00195606  0.50207642    -0.34600
C902        C  0.22992675  0.97689113  0.51269921     0.15700
O903        O  0.27177042  0.94396525  0.52188854    -0.26700
C904        C  0.24486629  0.93870730  0.53232670     0.05500
C905        C  0.21799301  0.95836724  0.52720210    -0.31500
O906        O  0.22620520  0.54176055  0.47741751    -0.23400
C907        C  0.25344437  0.54797149  0.46746592    -0.03400
C908        C  0.27993184  0.52731352  0.47197131    -0.17800
H909        H  0.30811391  0.47495153  0.49415145     0.20200
H910        H  0.18943322  0.00961485  0.50444656     0.18600
H911        H  0.19345133  0.95912013  0.53339630     0.18500
H912        H  0.30478649  0.52736355  0.46617510     0.14400
C913        C  0.23516264  0.76772293  0.51294261     0.29800
C914        C  0.21670185  0.75179235  0.49883199    -0.36500
C915        C  0.23367398  0.72770444  0.48837531     0.15800
C916        C  0.26652781  0.71967607  0.49159796     0.21600
C917        C  0.28498015  0.73553282  0.50578374    -0.34600
C918        C  0.26801269  0.75973251  0.51622153     0.15700
O919        O  0.22442377  0.79154398  0.52408537    -0.26700
C920        C  0.25069989  0.79890394  0.53466967     0.05500
C921        C  0.27853224  0.77987679  0.53044165    -0.31500
O922        O  0.27739112  0.69643618  0.48005686    -0.23400
C923        C  0.25114007  0.68961770  0.46930520    -0.03400
C924        C  0.22326484  0.70829493  0.47385548    -0.17800
H925        H  0.19097947  0.75794869  0.49609313     0.20200
H926        H  0.31078718  0.72958755  0.50840988     0.18600
H927        H  0.30301587  0.78111277  0.53673039     0.18500
H928        H  0.19886380  0.70752712  0.46743785     0.14400
C929        C  0.10035089  0.71777789  0.62328614     0.29800
C930        C  0.11660983  0.72905009  0.60700296    -0.36500
C931        C  0.13674148  0.75719912  0.60928042     0.15800
C932        C  0.14098049  0.77275819  0.62645924     0.21600
C933        C  0.12471848  0.76157428  0.64267460    -0.34600
C934        C  0.10423613  0.73384343  0.64033959     0.15700
O935        O  0.07890906  0.69308432  0.62425349    -0.26700
C936        C  0.06875148  0.69371647  0.64209566     0.05500
C937        C  0.08372430  0.71848292  0.65274307    -0.31500
O938        O  0.16060865  0.79876574  0.62542341    -0.23400
C939        C  0.16889169  0.80015869  0.60732458    -0.03400
C940        C  0.15471671  0.77500123  0.59654813    -0.17800
H941        H  0.11319455  0.71719467  0.59344749     0.20200
H942        H  0.12728724  0.77408798  0.65609960     0.18600
H943        H  0.07933208  0.72482229  0.66735689     0.18500
H944        H  0.15729225  0.77056224  0.58157548     0.14400
C945        C  0.35981606  0.76801004  0.61227621     0.29800
C946        C  0.38792008  0.74872967  0.60838727    -0.36500
C947        C  0.39985369  0.72943216  0.62331427     0.15800
C948        C  0.38542304  0.72932418  0.64095210     0.21600
C949        C  0.35686393  0.74811993  0.64473371    -0.34600
C950        C  0.34469430  0.76719604  0.62972158     0.15700
O951        O  0.34543159  0.78897423  0.60063219    -0.26700
C952        C  0.32048111  0.80140363  0.61064861     0.05500
C953        C  0.31863721  0.78864224  0.62880625    -0.31500
O954        O  0.40184975  0.71072233  0.65307740    -0.23400
C955        C  0.42681481  0.69852194  0.64295166    -0.03400
C956        C  0.42668703  0.70913584  0.62433741    -0.17800
H957        H  0.39999452  0.74919775  0.59477484     0.20200
H958        H  0.34529509  0.74830749  0.65848826     0.18600
H959        H  0.30133956  0.79512425  0.63987595     0.18500
H960        H  0.44437166  0.70341241  0.61332717     0.14400
C961        C  0.39161809  0.52365408  0.62444873     0.29800
C962        C  0.37356411  0.51374862  0.60846514    -0.36500
C963        C  0.35386143  0.98532276  0.61058094     0.15800
C964        C  0.35171895  0.96815688  0.62734920     0.21600
C965        C  0.36993872  0.97789027  0.64326072    -0.34600
C966        C  0.38993284  0.50600469  0.64106978     0.15700
O967        O  0.41236477  0.54889023  0.62551549    -0.26700
C968        C  0.42424409  0.54712288  0.64298997     0.05500
C969        C  0.41123738  0.52091743  0.65328984    -0.31500
O970        O  0.33203258  0.94218147  0.62617202    -0.23400
C971        C  0.32169302  0.94244958  0.60837136    -0.03400
C972        C  0.33449822  0.96866459  0.59796287    -0.17800
H973        H  0.37516727  0.52696281  0.59524071     0.20200
H974        H  0.36896431  0.96420633  0.65635194     0.18600
H975        H  0.41707465  0.01365976  0.66759613     0.18500
H976        H  0.33027561  0.97442580  0.58326245     0.14400
C977        C  0.09080770  0.51343505  0.62546818     0.29800
C978        C  0.10132192  0.99677051  0.60918964    -0.36500
C979        C  0.12870244  0.97570931  0.61138102     0.15800
C980        C  0.14497435  0.97169171  0.62836228     0.21600
C981        C  0.13426462  0.48817783  0.64470469    -0.34600
C982        C  0.10655193  0.50892119  0.64256842     0.15700
O983        O  0.06548525  0.53395810  0.62662458    -0.26700
C984        C  0.06473783  0.54249892  0.64472255     0.05500
C985        C  0.08963305  0.52763776  0.65537230    -0.31500
O986        O  0.16993515  0.95063245  0.62717814    -0.23400
C987        C  0.16937027  0.94081740  0.60926442    -0.03400
C988        C  0.14418696  0.95550393  0.59878511    -0.17800
H989        H  0.08879492  0.99975585  0.59579373     0.20200
H990        H  0.14645938  0.48479287  0.65816638     0.18600
H991        H  0.09451710  0.53030612  0.67030074     0.18500
H992        H  0.13808961  0.95162926  0.58408400     0.14400
C993        C  0.14621893  0.63830293  0.76126569     0.29800
C994        C  0.13084848  0.65708287  0.74712707    -0.36500
C995        C  0.10673897  0.64057637  0.73639823     0.15800
C996        C  0.09834268  0.60782779  0.73935748     0.21600
C997        C  0.11387022  0.58897068  0.75342558    -0.34600
C998        C  0.13792721  0.60551994  0.76419856     0.15700
O999        O  0.16934091  0.64882239  0.77297670    -0.26700
C1000       C  0.17595183  0.62245997  0.78355156     0.05500
C1001       C  0.15714727  0.59478300  0.77875697    -0.31500
O1002       O  0.07441143  0.59770007  0.72805461    -0.23400
C1003       C  0.06744094  0.62430095  0.71773645    -0.03400
C1004       C  0.08686357  0.65167224  0.72223514    -0.17800
H1005       H  0.13706164  0.68283294  0.74476443     0.20200
H1006       H  0.10740553  0.56332087  0.75591892     0.18600
H1007       H  0.15777565  0.57033221  0.78499421     0.18500
H1008       H  0.08593420  0.67628617  0.71621927     0.14400
C1009       C  0.39515209  0.63977838  0.74024162     0.29800
C1010       C  0.38022740  0.65935219  0.75425364    -0.36500
C1011       C  0.35590299  0.64366917  0.76521878     0.15800
C1012       C  0.34692061  0.61098627  0.76255400     0.21600
C1013       C  0.36182840  0.59143217  0.74856293    -0.34600
C1014       C  0.38609482  0.60711316  0.73759614     0.15700
O1015       O  0.41875762  0.64922565  0.72855639    -0.26700
C1016       C  0.42487429  0.62226927  0.71828958     0.05500
C1017       C  0.40521539  0.59533293  0.72325677    -0.31500
O1018       O  0.32331466  0.60145573  0.77417512    -0.23400
C1019       C  0.31703347  0.62834131  0.78444229    -0.03400
C1020       C  0.33661224  0.65538949  0.77953893    -0.17800
H1021       H  0.38710383  0.68499544  0.75644876     0.20200
H1022       H  0.35493397  0.56579351  0.74636256     0.18600
H1023       H  0.40539222  0.57058520  0.71735265     0.18500
H1024       H  0.33628758  0.68011840  0.78546373     0.14400
C1025       C  0.48579225  0.97888077  0.98988610     0.29800
C1026       C  0.46663710  0.99815874  0.00224318    -0.36500
C1027       C  0.48425925  0.51967078  0.01415132     0.15800
C1028       C  0.01846126  0.52190953  0.01408064     0.21600
C1029       C  0.03767157  0.50273980  0.00161275    -0.34600
C1030       C  0.01997788  0.98138856  0.98955373     0.15700
O1031       O  0.47431382  0.95723524  0.97754051    -0.26700
C1032       C  0.50142391  0.94585131  0.96900356     0.05500
C1033       C  0.03059998  0.96000289  0.97590039    -0.31500
O1034       O  0.02968137  0.54373156  0.02645570    -0.23400
C1035       C  0.50225781  0.55572898  0.03445597    -0.03400
C1036       C  0.47330017  0.54170604  0.02729882    -0.17800
H1037       H  0.43980512  0.99659897  0.00249344     0.20200
H1038       H  0.06448983  0.50447333  0.00127075     0.18600
H1039       H  0.05588792  0.95504126  0.97157497     0.18500
H1040       H  0.44787639  0.54712633  0.03117076     0.14400
C1041       C  0.48207609  0.72816586  0.01195966     0.29800
C1042       C  0.46134857  0.74697413  0.00022461    -0.36500
C1043       C  0.47749376  0.76789501  0.98744552     0.15800
C1044       C  0.01165898  0.77023230  0.98637680     0.21600
C1045       C  0.03236914  0.75106473  0.99790822    -0.34600
C1046       C  0.01623610  0.73007342  0.01063155     0.15700
O1047       O  0.47232337  0.70759424  0.02521865    -0.26700
C1048       C  0.50059226  0.69609420  0.03238626     0.05500
C1049       C  0.02873483  0.70904902  0.02381321    -0.31500
O1050       O  0.02146905  0.79244712  0.97403410    -0.23400
C1051       C  0.99325823  0.80429847  0.96700187    -0.03400
C1052       C  0.46505773  0.78984044  0.97471675    -0.17800
H1053       H  0.43454955  0.74571567  0.00117284     0.20200
H1054       H  0.05916685  0.75277497  0.99720124     0.18600
H1055       H  0.05454267  0.70391894  0.02696498     0.18500
H1056       H  0.43926962  0.79541372  0.97176623     0.14400
C1057       C  0.13617548  0.73993819  0.85905739     0.29800
C1058       C  0.11383222  0.76567708  0.85516895    -0.36500
C1059       C  0.09770008  0.77946131  0.87082464     0.15800
C1060       C  0.10318359  0.76873671  0.88904143     0.21600
C1061       C  0.12527168  0.74288246  0.89290986    -0.34600
C1062       C  0.14131816  0.72910511  0.87728250     0.15700
O1063       O  0.15507364  0.72433756  0.84672070    -0.26700
C1064       C  0.17237445  0.70328745  0.85726599     0.05500
C1065       C  0.16470485  0.70507894  0.87632996    -0.31500
O1066       O  0.08624235  0.78580991  0.90158982    -0.23400
C1067       C  0.06957040  0.80761823  0.89125927    -0.03400
C1068       C  0.07566230  0.80484691  0.87203886    -0.17800
H1069       H  0.10973231  0.77468792  0.84100004     0.20200
H1070       H  0.13002732  0.73446044  0.90713349     0.18600
H1071       H  0.17555900  0.69130042  0.88787978     0.18500
H1072       H  0.06575535  0.81979058  0.86069165     0.14400
C1073       C  0.35339199  0.73374261  0.86293180     0.29800
C1074       C  0.37980918  0.75497193  0.85841929    -0.36500
C1075       C  0.39373013  0.77273245  0.87349705     0.15800
C1076       C  0.38208206  0.77024226  0.89172319     0.21600
C1077       C  0.35618500  0.74838001  0.89631570    -0.34600
C1078       C  0.34264518  0.73016957  0.88128188     0.15700
O1079       O  0.33572655  0.71605077  0.85090654    -0.26700
C1080       C  0.31388167  0.70037918  0.86174487     0.05500
C1081       C  0.31712150  0.70798272  0.88077409    -0.31500
O1082       O  0.39732203  0.79076823  0.90338238    -0.23400
C1083       C  0.41940321  0.80617574  0.89253831    -0.03400
C1084       C  0.41846981  0.79575737  0.87385155    -0.17800
H1085       H  0.38849644  0.75790064  0.84409433     0.20200
H1086       H  0.34685562  0.74615771  0.91055138     0.18600
H1087       H  0.30195545  0.69946092  0.89237706     0.18500
H1088       H  0.43304907  0.80478328  0.86213050     0.14400
C1089       C  0.38226070  0.98600353  0.89255901     0.29800
C1090       C  0.35857490  0.51053080  0.89644781    -0.36500
C1091       C  0.34404295  0.52570222  0.88069614     0.15800
C1092       C  0.35231558  0.51744790  0.86239582     0.21600
C1093       C  0.37615916  0.99320136  0.85851800    -0.34600
C1094       C  0.39053651  0.97797503  0.87423140     0.15700
O1095       O  0.39815598  0.96766406  0.90504526    -0.26700
C1096       C  0.41679247  0.94779333  0.89447920     0.05500
C1097       C  0.41306286  0.95315718  0.87525490    -0.31500
O1098       O  0.33454381  0.53360331  0.84982230    -0.23400
C1099       C  0.31463743  0.55243261  0.86020715    -0.03400
C1100       C  0.31950379  0.54869529  0.87949403    -0.17800
H1101       H  0.35145791  0.51683057  0.91071018     0.20200
H1102       H  0.38251790  0.98616860  0.84424760     0.18600
H1103       H  0.42487788  0.94019637  0.86369827     0.18500
H1104       H  0.30617079  0.56046514  0.89092424     0.14400
C1105       C  0.15294836  0.50586871  0.86775261     0.29800
C1106       C  0.14821029  0.97374110  0.87463454    -0.36500
C1107       C  0.11611391  0.96625584  0.88083318     0.15800
C1108       C  0.09005622  0.98843307  0.87980596     0.21600
C1109       C  0.09490619  0.52082942  0.87311141    -0.34600
C1110       C  0.12737240  0.52867490  0.86741675     0.15700
O1111       O  0.18122125  0.51825436  0.86172432    -0.26700
C1112       C  0.17392412  0.54959319  0.85784353     0.05500
C1113       C  0.14085705  0.55764965  0.86115803    -0.31500
O1114       O  0.06194453  0.97569875  0.88607996    -0.23400
C1115       C  0.07051931  0.94533966  0.89154453    -0.03400
C1116       C  0.10385198  0.93819448  0.88870211    -0.17800
H1117       H  0.16830881  0.95597863  0.87539219     0.20200
H1118       H  0.07494069  0.53876539  0.87264932     0.18600
H1119       H  0.12866406  0.58130012  0.85920415     0.18500
H1120       H  0.11693521  0.91536818  0.89171486     0.14400
O1121       O  0.94058415  0.41701198  0.91955625    -0.81800
C1122       C  0.54796154  0.33276952  0.89957372     0.97600
O1123       O  0.53186171  0.35183797  0.88892073    -0.70900
O1124       O  0.96794548  0.33907301  0.89104155    -0.74500
Al1125     Al  0.49339976  0.37842376  0.89302665     1.49000
C1126       C  0.94126299  0.33265240  0.89961708     0.92900
O1127       O  0.96628532  0.33849040  0.94479367    -0.80700
O1128       O  0.52554835  0.41335448  0.94473505    -0.74200
Al1129     Al  0.95633383  0.37753272  0.93124819     1.90100
O1130       O  0.51932770  0.34648828  0.94987588    -0.73300
O1131       O  0.55678200  0.40252453  0.91257149    -0.73200
O1132       O  0.54625640  0.33566217  0.91718962    -0.78800
O1133       O  0.51854003  0.41832392  0.89237914    -0.77000
O1134       O  0.49430589  0.37690714  0.91822285    -1.13200
O1135       O  0.95507648  0.40491065  0.89071766    -0.72400
C1136       C  0.93860765  0.42208126  0.90211320     0.98400
C1137       C  0.49281860  0.33104808  0.95311973     0.94800
Al1138     Al  0.53350515  0.37475689  0.93008169     1.55600
O1139       O  0.93265524  0.34902699  0.91404219    -0.77000
C1140       C  0.54715575  0.42127916  0.89940699     0.98900
C1141       C  0.99988729  0.42038206  0.95410609     0.93800
O1142       O  0.97269246  0.40562232  0.95107142    -0.82300
O1143       O  0.70541923  0.18118658  0.83261171    -0.81800
C1144       C  0.78880130  0.07334291  0.85196607     0.97600
O1145       O  0.76906557  0.08851177  0.86274929    -0.70900
O1146       O  0.78024153  0.15248830  0.86244867    -0.74500
Al1147     Al  0.74154109  0.12647761  0.85908442     1.49000
C1148       C  0.78785649  0.17887388  0.85399405     0.92900
O1149       O  0.78491270  0.15465957  0.80812481    -0.80700
O1150       O  0.70760401  0.09706695  0.80758595    -0.74200
Al1151     Al  0.74518767  0.16493478  0.82131240     1.90100
O1152       O  0.77429216  0.10282069  0.80155947    -0.73300
O1153       O  0.71929363  0.06344216  0.83869788    -0.73200
O1154       O  0.78592785  0.07521638  0.83431367    -0.78800
O1155       O  0.70177574  0.10102144  0.85861831    -0.77000
O1156       O  0.74455681  0.12671386  0.83396256    -1.13200
O1157       O  0.71411564  0.16391513  0.86136018    -0.72400
C1158       C  0.69845406  0.18162397  0.84988301     0.98400
C1159       C  0.79091518  0.12875300  0.79886923     0.94800
Al1160     Al  0.74660133  0.08807496  0.82160100     1.55600
O1161       O  0.77322522  0.18747460  0.83901034    -0.77000
C1162       C  0.69921416  0.07278136  0.85122527     0.98900
C1163       C  0.70151386  0.12298732  0.79827967     0.93800
O1164       O  0.71752369  0.14949483  0.80111800    -0.82300
O1165       O  0.79843948  0.41147843  0.58328877    -0.81800
C1166       C  0.69062818  0.32626376  0.59999493     0.97600
O1167       O  0.70672270  0.34384970  0.61151388    -0.70900
O1168       O  0.77069866  0.33227431  0.61086750    -0.74500
Al1169     Al  0.74508878  0.37135545  0.60895078     1.49000
C1170       C  0.79846409  0.32722139  0.60326550     0.92900
O1171       O  0.77552122  0.33156765  0.55849546    -0.80700
O1172       O  0.71830133  0.40931832  0.55689335    -0.74200
Al1173     Al  0.78472527  0.37137609  0.57160291     1.90100
O1174       O  0.72373217  0.34212104  0.55088765    -0.73300
O1175       O  0.68389171  0.39874815  0.58757798    -0.73200
O1176       O  0.69267268  0.33124747  0.58253825    -0.78800
O1177       O  0.71920207  0.41034342  0.61027390    -0.77000
O1178       O  0.74585203  0.37110258  0.58370699    -1.13200
O1179       O  0.78343464  0.39896743  0.61211425    -0.72400
C1180       C  0.79988125  0.41655570  0.60079121     0.98400
C1181       C  0.74998611  0.32540885  0.54883076     0.94800
Al1182     Al  0.70790041  0.37044165  0.57063184     1.55600
O1183       O  0.80799960  0.34446730  0.58948401    -0.77000
C1184       C  0.69214238  0.41557241  0.60187768     0.98900
C1185       C  0.74440010  0.41420533  0.54754798     0.93800
O1186       O  0.77039863  0.39783336  0.55084471    -0.82300
O1187       O  0.52477643  0.18234463  0.66296937    -0.81800
C1188       C  0.95023862  0.06929783  0.65008872     0.97600
O1189       O  0.95599231  0.09621847  0.64174657    -0.70900
O1190       O  0.96997056  0.15971464  0.63968528    -0.74500
Al1191     Al  0.49606638  0.12069795  0.64310553     1.49000
C1192       C  0.95236433  0.17662568  0.65078035     0.92900
O1193       O  0.96803893  0.14693455  0.70083235    -0.80700
O1194       O  0.52362344  0.09868596  0.70133972    -0.74200
Al1195     Al  0.99620216  0.16037625  0.68050145     1.90100
O1196       O  0.95631800  0.09497819  0.69474808    -0.73300
O1197       O  0.53479033  0.06775039  0.66962872    -0.73200
O1198       O  0.96718426  0.06052818  0.66421379    -0.78800
O1199       O  0.52218078  0.08147647  0.64063373    -0.77000
O1200       O  0.99592261  0.12160141  0.66835998    -1.13200
O1201       O  0.53621138  0.14502511  0.64137833    -0.72400
C1202       C  0.54209991  0.17240043  0.64924744     0.98400
C1203       C  0.95090745  0.12131275  0.70378703     0.94800
Al1204     Al  0.49550250  0.08375367  0.68135367     1.55600
O1205       O  0.95689867  0.17530684  0.66831421    -0.77000
C1206       C  0.53947791  0.06516254  0.65214794     0.98900
C1207       C  0.54087933  0.12444607  0.70360385     0.93800
O1208       O  0.53527625  0.15019112  0.69413314    -0.82300
O1209       O  0.81505106  0.09113824  0.41423756    -0.81800
C1210       C  0.70135965  0.16568265  0.39972952     0.97600
O1211       O  0.72877446  0.16040313  0.39177608    -0.70900
O1212       O  0.79252394  0.14829226  0.39100146    -0.74500
Al1213     Al  0.75416185  0.12119938  0.39336691     1.49000
C1214       C  0.80955329  0.16483572  0.40255197     0.92900
O1215       O  0.77765374  0.14747245  0.45179221    -0.80700
O1216       O  0.72908510  0.09198471  0.45088872    -0.74200
Al1217     Al  0.79221998  0.11960243  0.43149966     1.90100
O1218       O  0.72579750  0.15897637  0.44492735    -0.73300
O1219       O  0.69957132  0.08196921  0.41857614    -0.73200
O1220       O  0.69251618  0.14920245  0.41392642    -0.78800
O1221       O  0.71587168  0.09445041  0.39000525    -0.77000
O1222       O  0.75385541  0.12052163  0.41863523    -1.13200
O1223       O  0.77912448  0.08188479  0.39156291    -0.72400
C1224       C  0.80558835  0.07475445  0.40005920     0.98400
C1225       C  0.75161143  0.16419387  0.45450193     0.94800
Al1226     Al  0.71518753  0.12055216  0.43100165     1.55600
O1227       O  0.80847449  0.15880562  0.41994437    -0.77000
C1228       C  0.69834565  0.07748540  0.40103589     0.98900
C1229       C  0.75471287  0.07471478  0.45355708     0.93800
O1230       O  0.78107441  0.08040681  0.44464761    -0.82300
O1231       O  0.53158734  0.30891040  0.33919526    -0.81800
C1232       C  0.95726568  0.42166357  0.35429520     0.97600
O1233       O  0.96454272  0.39512756  0.36253463    -0.70900
O1234       O  0.97606118  0.33185893  0.36274428    -0.74500
Al1235     Al  0.50350292  0.36990056  0.36028418     1.49000
C1236       C  0.95873996  0.31548364  0.35124647     0.92900
O1237       O  0.97622991  0.34688610  0.30174467    -0.80700
O1238       O  0.53156476  0.39553618  0.30275278    -0.74200
Al1239     Al  0.00369725  0.33241179  0.32206205     1.90100
O1240       O  0.96389962  0.39829794  0.30858093    -0.73300
O1241       O  0.54072395  0.42575875  0.33492012    -0.73200
O1242       O  0.97273553  0.43097376  0.33978856    -0.78800
O1243       O  0.53073727  0.40778312  0.36345075    -0.77000
O1244       O  0.50316964  0.37059301  0.33498478    -1.13200
O1245       O  0.54264960  0.34455733  0.36166755    -0.72400
C1246       C  0.54820330  0.31756508  0.35341753     0.98400
C1247       C  0.95922756  0.37259731  0.29892695     0.94800
Al1248     Al  0.50231569  0.40923589  0.32262343     1.55600
O1249       O  0.96420132  0.31683111  0.33376849    -0.77000
C1250       C  0.54666777  0.42603083  0.35231463     0.98900
C1251       C  0.54883961  0.36986448  0.29997687     0.93800
O1252       O  0.54311514  0.34349560  0.30888989    -0.82300
O1253       O  0.55870684  0.16584926  0.08335535    -0.81800
C1254       C  0.94615585  0.08644371  0.10209321     0.97600
O1255       O  0.96586280  0.10136409  0.11289991    -0.70900
O1256       O  0.52934106  0.09035513  0.11135098    -0.74500
Al1257     Al  0.00334020  0.12901440  0.10942154     1.49000
C1258       C  0.55515348  0.08266430  0.10244921     0.92900
O1259       O  0.52989836  0.08977643  0.05659161    -0.80700
O1260       O  0.97475585  0.16504109  0.05603645    -0.74200
Al1261     Al  0.54133339  0.12767337  0.07104827     1.90100
O1262       O  0.97639922  0.09740765  0.05278261    -0.73300
O1263       O  0.94294032  0.16100761  0.08766279    -0.73200
O1264       O  0.94550758  0.09267026  0.08478909    -0.78800
O1265       O  0.97733750  0.16772278  0.11137387    -0.77000
O1266       O  0.00271115  0.12852068  0.08394609    -1.13200
O1267       O  0.54104444  0.15689810  0.11201665    -0.72400
C1268       C  0.55907816  0.17256277  0.10067251     0.98400
C1269       C  0.00285650  0.08220813  0.04878576     0.94800
Al1270     Al  0.96360967  0.12897721  0.07151261     1.55600
O1271       O  0.56343722  0.09782293  0.08768157    -0.77000
C1272       C  0.95166486  0.17607576  0.10245554     0.98900
C1273       C  0.00120835  0.17153997  0.04752099     0.93800
O1274       O  0.52781803  0.15682634  0.05150861    -0.82300
O1275       O  0.79060562  0.43397970  0.16941062    -0.81800
C1276       C  0.70969868  0.32302681  0.15216987     0.97600
O1277       O  0.72617982  0.34034731  0.14080884    -0.70900
O1278       O  0.71118091  0.40333686  0.14305328    -0.74500
Al1279     Al  0.75165340  0.37971771  0.14375795     1.49000
C1280       C  0.70532692  0.43029438  0.15135503     0.92900
O1281       O  0.71429277  0.40531115  0.19605578    -0.80700
O1282       O  0.79423363  0.35181620  0.19437421    -0.77400
Al1283     Al  0.75239910  0.41720573  0.18192860     1.90100
O1284       O  0.72711050  0.35356766  0.20196242    -0.73300
O1285       O  0.78345733  0.31909586  0.16331583    -0.73200
O1286       O  0.71550675  0.32417252  0.16960742    -0.78800
O1287       O  0.79212200  0.35623278  0.14128080    -0.77000
O1288       O  0.75297712  0.37913259  0.16901916    -1.13200
O1289       O  0.77660643  0.41928531  0.14074934    -0.72400
C1290       C  0.79406163  0.43635603  0.15183183     0.98400
C1291       C  0.70974301  0.37898093  0.20520326     0.94800
Al1292     Al  0.75488164  0.34049221  0.18123393     1.55600
O1293       O  0.72257422  0.43959492  0.16526314    -0.77000
C1294       C  0.79943097  0.32922903  0.14913682     0.98900
C1295       C  0.79962868  0.37778081  0.20371319     0.93800
O1296       O  0.78189918  0.40322574  0.20146540    -0.82300
C1297       C  0.60582854  0.22829235  0.12771799     0.29800
C1298       C  0.61836239  0.24220790  0.14441366    -0.36500
C1299       C  0.64357376  0.26583147  0.14224810     0.15800
C1300       C  0.65530073  0.27540884  0.12482204     0.21600
C1301       C  0.64254305  0.26173681  0.10811181    -0.34600
C1302       C  0.61762088  0.23778562  0.11029027     0.15700
O1303       O  0.58345546  0.20456781  0.12654364    -0.26700
C1304       C  0.58091138  0.19865631  0.10814412     0.05500
C1305       C  0.60151445  0.21866263  0.09730926    -0.31500
O1306       O  0.67974333  0.29697635  0.12608971    -0.23400
C1307       C  0.68385614  0.30115752  0.14454969    -0.03400
C1308       C  0.66199148  0.28248206  0.15532740    -0.17800
H1309       H  0.60967601  0.23449336  0.15814764     0.20200
H1310       H  0.65200351  0.26866245  0.09440585     0.18600
H1311       H  0.60465863  0.21858329  0.08216486     0.18500
H1312       H  0.66032222  0.28101123  0.17052415     0.14400
C1313       C  0.89730948  0.24237110  0.11107494     0.29800
C1314       C  0.87492346  0.26793471  0.10664338    -0.36500
C1315       C  0.85864986  0.28281116  0.12197983     0.15800
C1316       C  0.86361241  0.27275778  0.14035588     0.21600
C1317       C  0.88663044  0.24788993  0.14481742    -0.34600
C1318       C  0.90331441  0.23347168  0.12954333     0.15700
O1319       O  0.91372259  0.22366261  0.09895531    -0.26700
C1320       C  0.93095519  0.20306408  0.10987050     0.05500
C1321       C  0.92568485  0.20823145  0.12899854    -0.31500
O1322       O  0.84384309  0.28805260  0.15233956    -0.23400
C1323       C  0.82642779  0.30868340  0.14158093    -0.03400
C1324       C  0.83477166  0.30677131  0.12258683    -0.17800
H1325       H  0.86993268  0.27515422  0.09223516     0.20200
H1326       H  0.89065206  0.23977270  0.15916791     0.18600
H1327       H  0.93567556  0.19428915  0.14072849     0.18500
H1328       H  0.82365191  0.31990124  0.11088109     0.14400
C1329       C  0.85737767  0.49291877  0.14169596     0.29800
C1330       C  0.88443676  0.01373761  0.14544970    -0.36500
C1331       C  0.89730154  0.03091028  0.12995150     0.15800
C1332       C  0.88444877  0.02792823  0.11197533     0.21600
C1333       C  0.85743805  0.50702075  0.10819712    -0.34600
C1334       C  0.84466499  0.48974444  0.12369402     0.15700
O1335       O  0.84131294  0.47470115  0.15410877    -0.26700
C1336       C  0.81819427  0.45953703  0.14386362     0.05500
C1337       C  0.81910787  0.46791738  0.12487070    -0.31500
O1338       O  0.90009177  0.04673248  0.09967376    -0.23400
C1339       C  0.92325262  0.06186656  0.10993994    -0.03400
C1340       C  0.92269797  0.05295795  0.12884665    -0.17800
H1341       H  0.89466712  0.01645664  0.15947948     0.20200
H1342       H  0.84705632  0.50447554  0.09419090     0.18600
H1343       H  0.80307344  0.45931414  0.11361981     0.18500
H1344       H  0.93848439  0.06178399  0.14015185     0.14400
C1345       C  0.64878192  0.47713803  0.12523704     0.29800
C1346       C  0.63384551  0.98955979  0.10883489    -0.36500
C1347       C  0.61141824  0.01573425  0.11142960     0.15800
C1348       C  0.60365335  0.02827269  0.12899796     0.21600
C1349       C  0.61894323  0.51618174  0.14535830    -0.34600
C1350       C  0.64188274  0.49050919  0.14272204     0.15700
O1351       O  0.67122393  0.45342266  0.12604551    -0.26700
C1352       C  0.67906394  0.45195083  0.14423043     0.05500
C1353       C  0.66178370  0.47455216  0.15527419    -0.31500
O1354       O  0.58214547  0.05280736  0.12816397    -0.23400
C1355       C  0.57652255  0.05639893  0.10982334    -0.03400
C1356       C  0.59413287  0.03416332  0.09869482    -0.17800
H1357       H  0.63976773  0.97991359  0.09500356     0.20200
H1358       H  0.61375960  0.52648347  0.15913370     0.18600
H1359       H  0.66391640  0.47879628  0.17029377     0.18500
H1360       H  0.59426970  0.03209001  0.08348558     0.14400
C1361       C  0.60565635  0.38851513  0.26413811     0.29800
C1362       C  0.62035667  0.40805853  0.25010303    -0.36500
C1363       C  0.64526748  0.39273572  0.23939228     0.15800
C1364       C  0.65517417  0.36041071  0.24231160     0.21600
C1365       C  0.64051009  0.34085473  0.25640266    -0.34600
C1366       C  0.61548988  0.35617245  0.26709325     0.15700
O1367       O  0.58137481  0.39767208  0.27545321    -0.26700
C1368       C  0.57548090  0.37087222  0.28581611     0.05500
C1369       C  0.59602550  0.34428129  0.28127514    -0.31500
O1370       O  0.67894258  0.35114969  0.23063086    -0.23400
C1371       C  0.68429298  0.37789704  0.22008698    -0.03400
C1372       C  0.66401661  0.40449944  0.22491230    -0.17800
H1373       H  0.61271899  0.43338916  0.24761387     0.20200
H1374       H  0.64794090  0.31543120  0.25878357     0.18600
H1375       H  0.59617132  0.31967780  0.28732406     0.18500
H1376       H  0.66334617  0.42897233  0.21870411     0.14400
C1377       C  0.89873729  0.39032907  0.26495529     0.29800
C1378       C  0.87597094  0.41000229  0.25504082    -0.36500
C1379       C  0.85876422  0.39418883  0.24038796     0.15800
C1380       C  0.86368202  0.36131636  0.23574609     0.21600
C1381       C  0.88661616  0.34169782  0.24558150    -0.34600
C1382       C  0.90372001  0.35747718  0.26028994     0.15700
O1383       O  0.91725541  0.39993451  0.27928671    -0.26700
C1384       C  0.93429284  0.37287628  0.28385230     0.05500
C1385       C  0.92691535  0.34570423  0.27251817    -0.31500
O1386       O  0.84406472  0.35132506  0.22197700    -0.23400
C1387       C  0.82635567  0.37814281  0.21777512    -0.03400
C1388       C  0.83452089  0.40558546  0.22871570    -0.17800
H1389       H  0.87169129  0.43571745  0.25864269     0.20200
H1390       H  0.89052323  0.31584386  0.24217031     0.18600
H1391       H  0.93728453  0.32098349  0.27315805     0.18500
H1392       H  0.82357326  0.43007766  0.22841460     0.14400
C1393       C  0.61064032  0.25943627  0.36180188     0.29800
C1394       C  0.63540060  0.23636466  0.35723341    -0.36500
C1395       C  0.65059844  0.22046490  0.37252767     0.15800
C1396       C  0.64138532  0.22617095  0.39099023     0.21600
C1397       C  0.61697853  0.24955142  0.39556119    -0.34600
C1398       C  0.60247543  0.26612196  0.38031798     0.15700
O1399       O  0.59276247  0.27677611  0.34977813    -0.26700
C1400       C  0.57356211  0.29526917  0.36080277     0.05500
C1401       C  0.57860386  0.28988678  0.37990022    -0.31500
O1402       O  0.65804296  0.20773062  0.40302212    -0.23400
C1403       C  0.67873461  0.19063399  0.39215730    -0.03400
C1404       C  0.67531066  0.19750051  0.37307411    -0.17800
H1405       H  0.64234159  0.23121343  0.34279611     0.20200
H1406       H  0.60985130  0.25451829  0.40999000     0.18600
H1407       H  0.56570571  0.30105232  0.39168102     0.18500
H1408       H  0.68850589  0.18650757  0.36134837     0.14400
C1409       C  0.90353896  0.26915135  0.37848277     0.29800
C1410       C  0.89045479  0.25607369  0.39520917    -0.36500
C1411       C  0.86650260  0.23116414  0.39302366     0.15800
C1412       C  0.85595107  0.22024613  0.37556543     0.21600
C1413       C  0.86878757  0.23354561  0.35886194    -0.34600
C1414       C  0.89297678  0.25816658  0.36104192     0.15700
O1415       O  0.92752857  0.29117324  0.37723716    -0.26700
C1416       C  0.93244759  0.29425792  0.35878831     0.05500
C1417       C  0.91156438  0.27444845  0.34798454    -0.31500
O1418       O  0.83435017  0.19590895  0.37674168    -0.23400
C1419       C  0.83104951  0.19103281  0.39516399    -0.03400
C1420       C  0.85038268  0.21229546  0.40604297    -0.17800
H1421       H  0.89903692  0.26409611  0.40893913     0.20200
H1422       H  0.86110289  0.22465429  0.34513415     0.18600
H1423       H  0.91089995  0.27174341  0.33281149     0.18500
H1424       H  0.85267053  0.21323400  0.42123357     0.14400
C1425       C  0.86216808  0.01039958  0.39246797     0.29800
C1426       C  0.88827092  0.48877979  0.39693426    -0.36500
C1427       C  0.90157776  0.47079109  0.38181520     0.15800
C1428       C  0.89025561  0.47414454  0.36353069     0.21600
C1429       C  0.86337648  0.99483997  0.35919671    -0.34600
C1430       C  0.84987004  0.01258704  0.37433347     0.15700
O1431       O  0.84797671  0.03168234  0.40403416    -0.26700
C1432       C  0.82601602  0.04728192  0.39320148     0.05500
C1433       C  0.82577021  0.03616028  0.37466703    -0.31500
O1434       O  0.90824910  0.45727136  0.35134206    -0.23400
C1435       C  0.93087678  0.44241805  0.36203581    -0.03400
C1436       C  0.92781599  0.44962068  0.38110168    -0.17800
H1437       H  0.89829526  0.48701554  0.41105789     0.20200
H1438       H  0.85441900  0.99782725  0.34491291     0.18600
H1439       H  0.81120836  0.04539678  0.36296437     0.18500
H1440       H  0.94361512  0.44161288  0.39258176     0.14400
C1441       C  0.60865534  0.48452496  0.36157247     0.29800
C1442       C  0.63221623  0.00898308  0.35741359    -0.36500
C1443       C  0.64757040  0.02393899  0.37298516     0.15800
C1444       C  0.64019652  0.01555648  0.39137338     0.21600
C1445       C  0.61676548  0.49103692  0.39551922    -0.34600
C1446       C  0.60154284  0.47598481  0.37996740     0.15700
O1447       O  0.59065195  0.46783690  0.34926524    -0.26700
C1448       C  0.57195030  0.44833917  0.35997590     0.05500
C1449       C  0.57774310  0.45226133  0.37915447    -0.31500
O1450       O  0.65715841  0.03308663  0.40374936    -0.23400
C1451       C  0.67573337  0.05278466  0.39312506    -0.03400
C1452       C  0.67082642  0.04823237  0.37389528    -0.17800
H1453       H  0.63798110  0.01602618  0.34307776     0.20200
H1454       H  0.61066475  0.48432345  0.40986131     0.18600
H1455       H  0.56561727  0.43991260  0.39079687     0.18500
H1456       H  0.68246185  0.06121707  0.36231552     0.14400
C1457       C  0.76247768  0.46723920  0.51001634     0.29800
C1458       C  0.78248381  0.48213394  0.49625490    -0.36500
C1459       C  0.76745773  0.00736339  0.48570860     0.15800
C1460       C  0.73493594  0.01706995  0.48845404     0.21600
C1461       C  0.71485065  0.50195626  0.50207651    -0.34600
C1462       C  0.72992680  0.47689124  0.51269927     0.15700
O1463       O  0.77177037  0.44396519  0.52188855    -0.26700
C1464       C  0.74486622  0.43870728  0.53232670     0.05500
C1465       C  0.71799299  0.45836729  0.52720212    -0.31500
O1466       O  0.72620492  0.04176038  0.47741743    -0.23400
C1467       C  0.75344409  0.04797143  0.46746586    -0.03400
C1468       C  0.77993162  0.02731355  0.47197126    -0.17800
H1469       H  0.80811384  0.97495162  0.49415138     0.20200
H1470       H  0.68943335  0.50961507  0.50444664     0.18600
H1471       H  0.69345133  0.45912020  0.53339633     0.18500
H1472       H  0.80478630  0.02736371  0.46617507     0.14400
C1473       C  0.73516265  0.26772318  0.51294254     0.29800
C1474       C  0.71670184  0.25179264  0.49883191    -0.36500
C1475       C  0.73367394  0.22770468  0.48837524     0.15800
C1476       C  0.76652775  0.21967625  0.49159791     0.21600
C1477       C  0.78498011  0.23553300  0.50578368    -0.34600
C1478       C  0.76801268  0.25973270  0.51622147     0.15700
O1479       O  0.72442379  0.29154422  0.52408532    -0.26700
C1480       C  0.75069990  0.29890409  0.53466965     0.05500
C1481       C  0.77853224  0.27987692  0.53044162    -0.31500
O1482       O  0.77739101  0.19643629  0.48005684    -0.23400
C1483       C  0.75113995  0.18961779  0.46930519    -0.03400
C1484       C  0.72326474  0.20829509  0.47385545    -0.17800
H1485       H  0.69097949  0.25794903  0.49609303     0.20200
H1486       H  0.81078711  0.22958766  0.50840984     0.18600
H1487       H  0.80301585  0.28111283  0.53673037     0.18500
H1488       H  0.69886369  0.20752728  0.46743783     0.14400
C1489       C  0.60035088  0.21777799  0.62328616     0.29800
C1490       C  0.61660981  0.22905019  0.60700298    -0.36500
C1491       C  0.63674153  0.25719915  0.60928046     0.15800
C1492       C  0.64098062  0.27275817  0.62645929     0.21600
C1493       C  0.62471865  0.26157423  0.64267466    -0.34600
C1494       C  0.60423622  0.23384345  0.64033963     0.15700
O1495       O  0.57890896  0.19308449  0.62425348    -0.26700
C1496       C  0.56875145  0.19371656  0.64209566     0.05500
C1497       C  0.58372436  0.21848293  0.65274310    -0.31500
O1498       O  0.66060878  0.29876572  0.62542345    -0.23400
C1499       C  0.66889176  0.30015870  0.60732462    -0.03400
C1500       C  0.65471673  0.27500128  0.59654817    -0.17800
H1501       H  0.61319444  0.21719484  0.59344750     0.20200
H1502       H  0.62728749  0.27408788  0.65609967     0.18600
H1503       H  0.57933222  0.22482223  0.66735693     0.18500
H1504       H  0.65729220  0.27056235  0.58157551     0.14400
C1505       C  0.85981606  0.26801005  0.61227623     0.29800
C1506       C  0.88792005  0.24872964  0.60838728    -0.36500
C1507       C  0.89985365  0.22943211  0.62331427     0.15800
C1508       C  0.88542303  0.22932416  0.64095211     0.21600
C1509       C  0.85686393  0.24811993  0.64473373    -0.34600
C1510       C  0.84469430  0.26719604  0.62972160     0.15700
O1511       O  0.84543162  0.28897427  0.60063222    -0.26700
C1512       C  0.82048114  0.30140368  0.61064863     0.05500
C1513       C  0.81863721  0.28864226  0.62880626    -0.31500
O1514       O  0.90184972  0.21072227  0.65307740    -0.23400
C1515       C  0.92681475  0.19852184  0.64295166    -0.03400
C1516       C  0.92668695  0.20913574  0.62433740    -0.17800
H1517       H  0.89999447  0.24919770  0.59477484     0.20200
H1518       H  0.84529509  0.24830747  0.65848828     0.18600
H1519       H  0.80133954  0.29512426  0.63987596     0.18500
H1520       H  0.94437157  0.20341229  0.61332716     0.14400
C1521       C  0.89161821  0.02365389  0.62444881     0.29800
C1522       C  0.87356418  0.01374848  0.60846522    -0.36500
C1523       C  0.85386138  0.48532288  0.61058090     0.15800
C1524       C  0.85171882  0.46815709  0.62734919     0.21600
C1525       C  0.86993853  0.47789054  0.64326070    -0.34600
C1526       C  0.88993303  0.00600444  0.64106985     0.15700
O1527       O  0.91236487  0.04889005  0.62551557    -0.26700
C1528       C  0.92424424  0.04712267  0.64299004     0.05500
C1529       C  0.91123761  0.02091715  0.65328990    -0.31500
O1530       O  0.83203241  0.44218171  0.62617203    -0.23400
C1531       C  0.82169292  0.44244974  0.60837136    -0.03400
C1532       C  0.83449819  0.46866467  0.59796283    -0.17800
H1533       H  0.87516731  0.02696271  0.59524081     0.20200
H1534       H  0.86896405  0.46420665  0.65635195     0.18600
H1535       H  0.91707430  0.51366010  0.66759613     0.18500
H1536       H  0.83027565  0.47442580  0.58326240     0.14400
C1537       C  0.59080788  0.01343516  0.62546807     0.29800
C1538       C  0.60132172  0.49677038  0.60918977    -0.36500
C1539       C  0.62870223  0.47570916  0.61138114     0.15800
C1540       C  0.64497415  0.47169157  0.62836240     0.21600
C1541       C  0.63426477  0.98817789  0.64470460    -0.34600
C1542       C  0.60655207  0.00892123  0.64256832     0.15700
O1543       O  0.56548541  0.03395818  0.62662449    -0.26700
C1544       C  0.56473794  0.04249890  0.64472248     0.05500
C1545       C  0.58963313  0.02763771  0.65537222    -0.31500
O1546       O  0.66993497  0.45063233  0.62717826    -0.23400
C1547       C  0.66937011  0.44081731  0.60926453    -0.03400
C1548       C  0.64418677  0.45550382  0.59878523    -0.17800
H1549       H  0.58879473  0.49975574  0.59579385     0.20200
H1550       H  0.64645947  0.98479287  0.65816629     0.18600
H1551       H  0.59451715  0.03030600  0.67030067     0.18500
H1552       H  0.63808943  0.45162918  0.58408412     0.14400
C1553       C  0.64621919  0.13830294  0.76126561     0.29800
C1554       C  0.63084886  0.15708282  0.74712692    -0.36500
C1555       C  0.60673928  0.14057634  0.73639812     0.15800
C1556       C  0.59834288  0.10782781  0.73935745     0.21600
C1557       C  0.61387034  0.08897075  0.75342559    -0.34600
C1558       C  0.63792734  0.10552000  0.76419856     0.15700
O1559       O  0.66934114  0.14882240  0.77297664    -0.26700
C1560       C  0.67595192  0.12246003  0.78355157     0.05500
C1561       C  0.65714726  0.09478311  0.77875704    -0.31500
O1562       O  0.57441156  0.09770011  0.72805462    -0.23400
C1563       C  0.56744113  0.12430095  0.71773642    -0.03400
C1564       C  0.58686388  0.15167220  0.72223503    -0.17800
H1565       H  0.63706211  0.18283286  0.74476423     0.20200
H1566       H  0.60740554  0.06332098  0.75591900     0.18600
H1567       H  0.65777548  0.07033237  0.78499436     0.18500
H1568       H  0.58593458  0.17628610  0.71621911     0.14400
C1569       C  0.89515211  0.13977828  0.74024160     0.29800
C1570       C  0.88022745  0.15935212  0.75425362    -0.36500
C1571       C  0.85590299  0.14366917  0.76521875     0.15800
C1572       C  0.84692054  0.11098629  0.76255396     0.21600
C1573       C  0.86182830  0.09143215  0.74856290    -0.34600
C1574       C  0.88609478  0.10711307  0.73759611     0.15700
O1575       O  0.91875768  0.14922550  0.72855638    -0.26700
C1576       C  0.92487433  0.12226911  0.71828957     0.05500
C1577       C  0.90521537  0.09533280  0.72325675    -0.31500
O1578       O  0.82331455  0.10145582  0.77417508    -0.23400
C1579       C  0.81703341  0.12834141  0.78444225    -0.03400
C1580       C  0.83661224  0.15538955  0.77953888    -0.17800
H1581       H  0.88710393  0.18499536  0.75644875     0.20200
H1582       H  0.85493379  0.06579351  0.74636253     0.18600
H1583       H  0.90539215  0.07058508  0.71735262     0.18500
H1584       H  0.83628764  0.18011845  0.78546367     0.14400
C1585       C  0.98579224  0.47888053  0.98988621     0.29800
C1586       C  0.96663708  0.49815848  0.00224330    -0.36500
C1587       C  0.98425927  0.01967109  0.01415120     0.15800
C1588       C  0.51846126  0.02190983  0.01408050     0.21600
C1589       C  0.53767158  0.00274010  0.00161260    -0.34600
C1590       C  0.51997785  0.48138828  0.98955385     0.15700
O1591       O  0.97431382  0.45723507  0.97754058    -0.26700
C1592       C  0.00142392  0.44585121  0.96900362     0.05500
C1593       C  0.53059993  0.46000275  0.97590045    -0.31500
O1594       O  0.52968136  0.04373182  0.02645559    -0.23400
C1595       C  0.00225785  0.05572916  0.03445593    -0.03400
C1596       C  0.97330021  0.04170625  0.02729876    -0.17800
H1597       H  0.93980511  0.49659874  0.00249352     0.20200
H1598       H  0.56448984  0.00447363  0.00127061     0.18600
H1599       H  0.55588786  0.45504118  0.97157499     0.18500
H1600       H  0.94787644  0.04712649  0.03117075     0.14400
C1601       C  0.98207611  0.22816570  0.01195954     0.29800
C1602       C  0.96134859  0.24697396  0.00022448    -0.36500
C1603       C  0.97749379  0.26789497  0.98744546     0.15800
C1604       C  0.51165907  0.27023236  0.98637678     0.21600
C1605       C  0.53236924  0.25106478  0.99790820    -0.34600
C1606       C  0.51623620  0.23007337  0.01063148     0.15700
O1607       O  0.97232341  0.20759411  0.02521856    -0.26700
C1608       C  0.00059234  0.19609419  0.03238622     0.05500
C1609       C  0.52873494  0.20904899  0.02381315    -0.31500
O1610       O  0.52146912  0.29244728  0.97403412    -0.23400
C1611       C  0.49325829  0.30429857  0.96700187    -0.03400
C1612       C  0.96505779  0.28984045  0.97471670    -0.17800
H1613       H  0.93454955  0.24571544  0.00117268     0.20200
H1614       H  0.55916694  0.25277509  0.99720126     0.18600
H1615       H  0.55454277  0.20391898  0.02696494     0.18500
H1616       H  0.93926967  0.29541367  0.97176613     0.14400
C1617       C  0.63617559  0.23993831  0.85905748     0.29800
C1618       C  0.61383235  0.26567720  0.85516902    -0.36500
C1619       C  0.59770022  0.27946145  0.87082471     0.15800
C1620       C  0.60318372  0.26873689  0.88904150     0.21600
C1621       C  0.62527183  0.24288264  0.89290995    -0.34600
C1622       C  0.64131829  0.22910525  0.87728259     0.15700
O1623       O  0.65507373  0.22433765  0.84672078    -0.26700
C1624       C  0.67237452  0.20328754  0.85726607     0.05500
C1625       C  0.66470495  0.20507905  0.87633004    -0.31500
O1626       O  0.58624247  0.28581011  0.90158988    -0.23400
C1627       C  0.56957047  0.30761838  0.89125930    -0.03400
C1628       C  0.57566238  0.30484702  0.87203890    -0.17800
H1629       H  0.60973242  0.27468799  0.84100012     0.20200
H1630       H  0.63002749  0.23446066  0.90713358     0.18600
H1631       H  0.67555907  0.19130050  0.88787986     0.18500
H1632       H  0.56575540  0.31979063  0.86069168     0.14400
C1633       C  0.85339189  0.23374270  0.86293183     0.29800
C1634       C  0.87980908  0.25497201  0.85841930    -0.36500
C1635       C  0.89373007  0.27273252  0.87349706     0.15800
C1636       C  0.88208199  0.27024239  0.89172320     0.21600
C1637       C  0.85618494  0.24838016  0.89631572    -0.34600
C1638       C  0.84264511  0.23016968  0.88128192     0.15700
O1639       O  0.83572644  0.21605082  0.85090659    -0.26700
C1640       C  0.81388162  0.20037920  0.86174494     0.05500
C1641       C  0.81712147  0.20798278  0.88077416    -0.31500
O1642       O  0.89732200  0.29076835  0.90338239    -0.23400
C1643       C  0.91940321  0.30617580  0.89253831    -0.03400
C1644       C  0.91846980  0.29575740  0.87385156    -0.17800
H1645       H  0.88849633  0.25790069  0.84409434     0.20200
H1646       H  0.84685558  0.24615787  0.91055141     0.18600
H1647       H  0.80195547  0.19946097  0.89237714     0.18500
H1648       H  0.93304908  0.30478323  0.86213051     0.14400
C1649       C  0.88226073  0.48600361  0.89255905     0.29800
C1650       C  0.85857484  0.01053065  0.89644780    -0.36500
C1651       C  0.84404294  0.02570212  0.88069613     0.15800
C1652       C  0.85231569  0.01744793  0.86239581     0.21600
C1653       C  0.87615896  0.49320118  0.85851803    -0.34600
C1654       C  0.89053639  0.47797496  0.87423143     0.15700
O1655       O  0.89815608  0.46766420  0.90504530    -0.26700
C1656       C  0.91679246  0.44779337  0.89447925     0.05500
C1657       C  0.91306270  0.45315708  0.87525494    -0.31500
O1658       O  0.83454395  0.03360339  0.84982229    -0.23400
C1659       C  0.81463750  0.05243261  0.86020714    -0.03400
C1660       C  0.81950375  0.04869517  0.87949402    -0.17800
H1661       H  0.85145775  0.01683032  0.91071016     0.20200
H1662       H  0.88251756  0.48616828  0.84424763     0.18600
H1663       H  0.92487761  0.44019616  0.86369832     0.18500
H1664       H  0.80617069  0.06046494  0.89092424     0.14400
C1665       C  0.65294848  0.00586851  0.86775262     0.29800
C1666       C  0.64821020  0.47374132  0.87463459    -0.36500
C1667       C  0.61611381  0.46625608  0.88083320     0.15800
C1668       C  0.59005612  0.48843328  0.87980594     0.21600
C1669       C  0.59490632  0.02082921  0.87311146    -0.34600
C1670       C  0.62737252  0.02867469  0.86741679     0.15700
O1671       O  0.68122135  0.01825418  0.86172431    -0.26700
C1672       C  0.67392421  0.04959302  0.85784354     0.05500
C1673       C  0.64085714  0.05764946  0.86115807    -0.31500
O1674       O  0.56194441  0.47569897  0.88607992    -0.23400
C1675       C  0.57051919  0.44533989  0.89154454    -0.03400
C1676       C  0.60385187  0.43819473  0.88870215    -0.17800
H1677       H  0.66830872  0.45597887  0.87539228     0.20200
H1678       H  0.57494082  0.03876517  0.87264939     0.18600
H1679       H  0.62866414  0.08129992  0.85920420     0.18500
H1680       H  0.61693510  0.41536843  0.89171491     0.14400
O1681       O  0.94058409  0.91701193  0.91955623    -0.81800
C1682       C  0.54796149  0.83276939  0.89957373     0.97600
O1683       O  0.53186169  0.85183787  0.88892074    -0.70900
O1684       O  0.96794542  0.83907303  0.89104154    -0.74500
Al1685     Al  0.49339978  0.87842371  0.89302666     1.49000
C1686       C  0.94126297  0.83265238  0.89961709     0.92900
O1687       O  0.96628527  0.83849039  0.94479369    -0.80700
O1688       O  0.52554836  0.91335438  0.94473508    -0.74200
Al1689     Al  0.95633380  0.87753271  0.93124819     1.90100
O1690       O  0.51932765  0.84648816  0.94987589    -0.73300
O1691       O  0.55678205  0.90252432  0.91257152    -0.73200
O1692       O  0.54625634  0.83566202  0.91718964    -0.78800
O1693       O  0.51854012  0.91832383  0.89237918    -0.77000
O1694       O  0.49430588  0.87690706  0.91822286    -1.13200
O1695       O  0.95507653  0.90491067  0.89071765    -0.72400
C1696       C  0.93860765  0.92208123  0.90211319     0.98400
C1697       C  0.49281854  0.83104799  0.95311974     0.94800
Al1698     Al  0.53350513  0.87475675  0.93008171     1.55600
O1699       O  0.93265523  0.84902695  0.91404221    -0.77000
C1700       C  0.54715586  0.92127898  0.89940702     0.98900
C1701       C  0.99988732  0.92038207  0.95410608     0.93800
O1702       O  0.97269246  0.90562237  0.95107140    -0.82300
O1703       O  0.70541924  0.68118657  0.83261168    -0.81800
C1704       C  0.78880126  0.57334289  0.85196607     0.97600
O1705       O  0.76906557  0.58851182  0.86274930    -0.70900
O1706       O  0.78024160  0.65248830  0.86244862    -0.74500
Al1707     Al  0.74154113  0.62647766  0.85908441     1.49000
C1708       C  0.78785656  0.67887387  0.85399400     0.92900
O1709       O  0.78491266  0.65465951  0.80812478    -0.80700
O1710       O  0.70760396  0.59706692  0.80758595    -0.74200
Al1711     Al  0.74518766  0.66493476  0.82131237     1.90100
O1712       O  0.77429214  0.60282061  0.80155947    -0.73300
O1713       O  0.71929356  0.56344221  0.83869790    -0.73200
O1714       O  0.78592778  0.57521631  0.83431368    -0.78800
O1715       O  0.70177577  0.60102153  0.85861833    -0.77000
O1716       O  0.74455681  0.62671386  0.83396254    -1.13200
O1717       O  0.71411572  0.66391519  0.86136015    -0.72400
C1718       C  0.69845407  0.68162397  0.84988298     0.98400
C1719       C  0.79091516  0.62875292  0.79886923     0.94800
Al1720     Al  0.74660128  0.58807494  0.82160101     1.55600
O1721       O  0.77322526  0.68747460  0.83901030    -0.77000
C1722       C  0.69921413  0.57278145  0.85122529     0.98900
C1723       C  0.70151379  0.62298729  0.79827967     0.93800
O1724       O  0.71752364  0.64949480  0.80111799    -0.82300
O1725       O  0.79843951  0.91147836  0.58328878    -0.81800
C1726       C  0.69062816  0.82626372  0.59999492     0.97600
O1727       O  0.70672265  0.84384966  0.61151388    -0.70900
O1728       O  0.77069863  0.83227421  0.61086749    -0.74500
Al1729     Al  0.74508880  0.87135538  0.60895077     1.49000
C1730       C  0.79846407  0.82722132  0.60326550     0.92900
O1731       O  0.77552121  0.83156758  0.55849546    -0.80700
O1732       O  0.71830138  0.90931826  0.55689334    -0.74200
Al1733     Al  0.78472528  0.87137601  0.57160291     1.90100
O1734       O  0.72373215  0.84212096  0.55088766    -0.73300
O1735       O  0.68389177  0.89874813  0.58757796    -0.73200
O1736       O  0.69267269  0.83124742  0.58253825    -0.78800
O1737       O  0.71920216  0.91034337  0.61027387    -0.77000
O1738       O  0.74585205  0.87110251  0.58370698    -1.13200
O1739       O  0.78343470  0.89896731  0.61211426    -0.72400
C1740       C  0.79988133  0.91655558  0.60079122     0.98400
C1741       C  0.74998609  0.82540876  0.54883077     0.94800
Al1742     Al  0.70790043  0.87044160  0.57063183     1.55600
O1743       O  0.80799957  0.84446722  0.58948401    -0.77000
C1744       C  0.69214250  0.91557241  0.60187764     0.98900
C1745       C  0.74440016  0.91420529  0.54754798     0.93800
O1746       O  0.77039867  0.89783331  0.55084471    -0.82300
O1747       O  0.52477645  0.68234462  0.66296936    -0.81800
C1748       C  0.95023843  0.56929801  0.65008872     0.97600
O1749       O  0.95599214  0.59621867  0.64174659    -0.70900
O1750       O  0.96997059  0.65971474  0.63968527    -0.74500
Al1751     Al  0.49606636  0.62069801  0.64310553     1.49000
C1752       C  0.95236435  0.67662577  0.65078035     0.92900
O1753       O  0.96803886  0.64693465  0.70083234    -0.80700
O1754       O  0.52362325  0.59868600  0.70133974    -0.74200
Al1755     Al  0.99620212  0.66037631  0.68050145     1.90100
O1756       O  0.95631779  0.59497833  0.69474803    -0.73300
O1757       O  0.53479020  0.56775044  0.66962876    -0.73200
O1758       O  0.96718411  0.56052827  0.66421376    -0.78800
O1759       O  0.52218065  0.58147646  0.64063377    -0.77000
O1760       O  0.99592250  0.62160148  0.66835999    -1.13200
O1761       O  0.53621142  0.64502505  0.64137835    -0.72400
C1762       C  0.54209994  0.67240038  0.64924745     0.98400
C1763       C  0.95090732  0.62131288  0.70378701     0.94800
Al1764     Al  0.49550236  0.58375375  0.68135366     1.55600
O1765       O  0.95689867  0.67530693  0.66831421    -0.77000
C1766       C  0.53947777  0.56516254  0.65214799     0.98900
C1767       C  0.54087920  0.62444608  0.70360387     0.93800
O1768       O  0.53527621  0.65019112  0.69413314    -0.82300
O1769       O  0.81505120  0.59113835  0.41423752    -0.81800
C1770       C  0.70135970  0.66568252  0.39972945     0.97600
O1771       O  0.72877454  0.66040309  0.39177603    -0.70900
O1772       O  0.79252408  0.64829224  0.39100142    -0.74500
Al1773     Al  0.75416195  0.62119935  0.39336688     1.49000
C1774       C  0.80955333  0.66483577  0.40255194     0.92900
O1775       O  0.77765386  0.64747244  0.45179220    -0.80700
O1776       O  0.72908531  0.59198472  0.45088871    -0.74200
Al1777     Al  0.79222010  0.61960247  0.43149964     1.90100
O1778       O  0.72579763  0.65897637  0.44492731    -0.73300
O1779       O  0.69957154  0.58196907  0.41857612    -0.73200
O1780       O  0.69251627  0.64920232  0.41392636    -0.78800
O1781       O  0.71587179  0.59445033  0.39000523    -0.77000
O1782       O  0.75385553  0.62052162  0.41863520    -1.13200
O1783       O  0.77912454  0.58188478  0.39156292    -0.72400
C1784       C  0.80558845  0.57475451  0.40005919     0.98400
C1785       C  0.75161155  0.66419385  0.45450191     0.94800
Al1786     Al  0.71518768  0.62055210  0.43100162     1.55600
O1787       O  0.80847450  0.65880570  0.41994434    -0.77000
C1788       C  0.69834585  0.57748526  0.40103587     0.98900
C1789       C  0.75471309  0.57471482  0.45355710     0.93800
O1790       O  0.78107461  0.58040681  0.44464760    -0.82300
O1791       O  0.53158737  0.80891031  0.33919525    -0.81800
C1792       C  0.95726582  0.92166353  0.35429516     0.97600
O1793       O  0.96454289  0.89512754  0.36253461    -0.70900
O1794       O  0.97606134  0.83185887  0.36274429    -0.74500
Al1795     Al  0.50350306  0.86990050  0.36028417     1.49000
C1796       C  0.95874005  0.81548361  0.35124650     0.92900
O1797       O  0.97622987  0.84688596  0.30174469    -0.80700
O1798       O  0.53156474  0.89553604  0.30275276    -0.74200
Al1799     Al  0.00369727  0.83241166  0.32206203     1.90100
O1800       O  0.96389977  0.89829787  0.30858090    -0.73300
O1801       O  0.54072395  0.92575870  0.33492008    -0.73200
O1802       O  0.97273566  0.93097368  0.33978851    -0.78800
O1803       O  0.53073734  0.90778310  0.36345071    -0.77000
O1804       O  0.50316969  0.87059291  0.33498477    -1.13200
O1805       O  0.54264979  0.84455733  0.36166747    -0.72400
C1806       C  0.54820342  0.81756505  0.35341748     0.98400
C1807       C  0.95922758  0.87259720  0.29892697     0.94800
Al1808     Al  0.50231567  0.90923577  0.32262342     1.55600
O1809       O  0.96420137  0.81683105  0.33376851    -0.77000
C1810       C  0.54666781  0.92603080  0.35231458     0.98900
C1811       C  0.54883962  0.86986435  0.29997687     0.93800
O1812       O  0.54311515  0.84349547  0.30888989    -0.82300
O1813       O  0.55870668  0.66584928  0.08335539    -0.81800
C1814       C  0.94615572  0.58644352  0.10209317     0.97600
O1815       O  0.96586271  0.60136386  0.11289987    -0.70900
O1816       O  0.52934092  0.59035504  0.11135095    -0.74500
Al1817     Al  0.00334006  0.62901421  0.10942153     1.49000
C1818       C  0.55515335  0.58266423  0.10244919     0.92900
O1819       O  0.52989836  0.58977643  0.05659159    -0.80700
O1820       O  0.97475571  0.66504096  0.05603643    -0.74200
Al1821     Al  0.54133330  0.62767335  0.07104829     1.90100
O1822       O  0.97639914  0.59740750  0.05278261    -0.73300
O1823       O  0.94294021  0.66100735  0.08766277    -0.73200
O1824       O  0.94550749  0.59267008  0.08478906    -0.78800
O1825       O  0.97733729  0.66772250  0.11137390    -0.77000
O1826       O  0.00271103  0.62852056  0.08394608    -1.13200
O1827       O  0.54104430  0.65689804  0.11201668    -0.72400
C1828       C  0.55907799  0.67256278  0.10067255     0.98400
C1829       C  0.00285645  0.58220807  0.04878574     0.94800
Al1830     Al  0.96360957  0.62897704  0.07151259     1.55600
O1831       O  0.56343712  0.59782290  0.08768157    -0.77000
C1832       C  0.95166464  0.67607542  0.10245556     0.98900
C1833       C  0.00120823  0.67153998  0.04752103     0.93800
O1834       O  0.52781797  0.65682633  0.05150865    -0.82300
O1835       O  0.79060580  0.93397967  0.16941056    -0.81800
C1836       C  0.70969869  0.82302684  0.15216982     0.97600
O1837       O  0.72617993  0.84034726  0.14080879    -0.70900
O1838       O  0.71118108  0.90333686  0.14305323    -0.74500
Al1839     Al  0.75165355  0.87971766  0.14375792     1.49000
C1840       C  0.70532708  0.93029436  0.15135499     0.92900
O1841       O  0.71429288  0.90531117  0.19605576    -0.80700
O1842       O  0.79423365  0.85181613  0.19437423    -0.77400
Al1843     Al  0.75239924  0.91720573  0.18192857     1.90100
O1844       O  0.72711051  0.85356764  0.20196237    -0.73300
O1845       O  0.78345737  0.81909580  0.16331583    -0.73200
O1846       O  0.71550678  0.82417255  0.16960737    -0.78800
O1847       O  0.79212214  0.85623267  0.14128080    -0.77000
O1848       O  0.75297724  0.87913257  0.16901913    -1.13200
O1849       O  0.77660661  0.91928525  0.14074930    -0.72400
C1850       C  0.79406182  0.93635597  0.15183177     0.98400
C1851       C  0.70974303  0.87898091  0.20520321     0.94800
Al1852     Al  0.75488168  0.84049219  0.18123391     1.55600
O1853       O  0.72257438  0.93959491  0.16526310    -0.77000
C1854       C  0.79943104  0.82922892  0.14913683     0.98900
C1855       C  0.79962873  0.87778077  0.20371320     0.93800
O1856       O  0.78189929  0.90322573  0.20146536    -0.82300
C1857       C  0.60582825  0.72829256  0.12771803     0.29800
C1858       C  0.61836219  0.74220809  0.14441369    -0.36500
C1859       C  0.64357344  0.76583178  0.14224811     0.15800
C1860       C  0.65530023  0.77540928  0.12482204     0.21600
C1861       C  0.64254240  0.76173734  0.10811182    -0.34600
C1862       C  0.61762036  0.73778602  0.11029030     0.15700
O1863       O  0.58345535  0.70456784  0.12654370    -0.26700
C1864       C  0.58091115  0.69865641  0.10814417     0.05500
C1865       C  0.60151395  0.71866299  0.09730929    -0.31500
O1866       O  0.67974290  0.79697673  0.12608968    -0.23400
C1867       C  0.68385596  0.80115772  0.14454966    -0.03400
C1868       C  0.66199136  0.78248222  0.15532740    -0.17800
H1869       H  0.60967603  0.73449339  0.15814770     0.20200
H1870       H  0.65200272  0.76866309  0.09440585     0.18600
H1871       H  0.60465798  0.71858379  0.08216488     0.18500
H1872       H  0.66032231  0.78101120  0.17052415     0.14400
C1873       C  0.89730897  0.74237046  0.11107498     0.29800
C1874       C  0.87492293  0.76793403  0.10664340    -0.36500
C1875       C  0.85864954  0.78281066  0.12197986     0.15800
C1876       C  0.86361228  0.77275745  0.14035593     0.21600
C1877       C  0.88663032  0.74788961  0.14481748    -0.34600
C1878       C  0.90331410  0.73347120  0.12954337     0.15700
O1879       O  0.91372207  0.72366198  0.09895535    -0.26700
C1880       C  0.93095485  0.70306361  0.10987054     0.05500
C1881       C  0.92568464  0.70823107  0.12899858    -0.31500
O1882       O  0.84384313  0.78805245  0.15233962    -0.23400
C1883       C  0.82642778  0.80868318  0.14158096    -0.03400
C1884       C  0.83477143  0.80677087  0.12258685    -0.17800
H1885       H  0.86993204  0.77515343  0.09223519     0.20200
H1886       H  0.89065211  0.73977255  0.15916798     0.18600
H1887       H  0.93567557  0.69428893  0.14072854     0.18500
H1888       H  0.82365157  0.81990070  0.11088110     0.14400
C1889       C  0.85737796  0.99291865  0.14169591     0.29800
C1890       C  0.88443644  0.51373776  0.14544973    -0.36500
C1891       C  0.89730125  0.53091034  0.12995152     0.15800
C1892       C  0.88444854  0.52792818  0.11197534     0.21600
C1893       C  0.85743825  0.00702082  0.10819710    -0.34600
C1894       C  0.84466522  0.98974443  0.12369398     0.15700
O1895       O  0.84131322  0.97470100  0.15410871    -0.26700
C1896       C  0.81819449  0.95953696  0.14386355     0.05500
C1897       C  0.81910806  0.96791742  0.12487064    -0.31500
O1898       O  0.90009161  0.54673232  0.09967374    -0.23400
C1899       C  0.92325242  0.56186646  0.10993992    -0.03400
C1900       C  0.92269769  0.55295799  0.12884665    -0.17800
H1901       H  0.89466676  0.51645687  0.15947952     0.20200
H1902       H  0.84705646  0.00447572  0.09419088     0.18600
H1903       H  0.80307357  0.95931427  0.11361976     0.18500
H1904       H  0.93848406  0.56178411  0.14015185     0.14400
C1905       C  0.64878219  0.97713815  0.12523702     0.29800
C1906       C  0.63384504  0.48955944  0.10883492    -0.36500
C1907       C  0.61141793  0.51573405  0.11142961     0.15800
C1908       C  0.60365343  0.52827286  0.12899793     0.21600
C1909       C  0.61894292  0.01618132  0.14535834    -0.34600
C1910       C  0.64188265  0.99050895  0.14272205     0.15700
O1911       O  0.67122434  0.95342291  0.12604545    -0.26700
C1912       C  0.67906408  0.95195080  0.14423040     0.05500
C1913       C  0.66178353  0.97455181  0.15527421    -0.31500
O1914       O  0.58214565  0.55280760  0.12816394    -0.23400
C1915       C  0.57652240  0.55639887  0.10982332    -0.03400
C1916       C  0.59413238  0.53416295  0.09869482    -0.17800
H1917       H  0.63976698  0.47991296  0.09500362     0.20200
H1918       H  0.61375902  0.02648276  0.15913378     0.18600
H1919       H  0.66391600  0.97879568  0.17029383     0.18500
H1920       H  0.59426890  0.53208935  0.08348560     0.14400
C1921       C  0.60565629  0.88851499  0.26413805     0.29800
C1922       C  0.62035654  0.90805838  0.25010293    -0.36500
C1923       C  0.64526734  0.89273558  0.23939217     0.15800
C1924       C  0.65517409  0.86041060  0.24231150     0.21600
C1925       C  0.64051005  0.84085462  0.25640259    -0.34600
C1926       C  0.61548985  0.85617233  0.26709319     0.15700
O1927       O  0.58137478  0.89767194  0.27545317    -0.26700
C1928       C  0.57548092  0.87087210  0.28581609     0.05500
C1929       C  0.59602555  0.84428119  0.28127513    -0.31500
O1930       O  0.67894253  0.85114961  0.23063077    -0.23400
C1931       C  0.68429291  0.87789697  0.22008688    -0.03400
C1932       C  0.66401646  0.90449933  0.22491218    -0.17800
H1933       H  0.61271884  0.93338901  0.24761377     0.20200
H1934       H  0.64794091  0.81543111  0.25878352     0.18600
H1935       H  0.59617146  0.81967774  0.28732409     0.18500
H1936       H  0.66334597  0.92897220  0.21870398     0.14400
C1937       C  0.89873717  0.89032899  0.26495541     0.29800
C1938       C  0.87597085  0.91000224  0.25504092    -0.36500
C1939       C  0.85876410  0.89418877  0.24038807     0.15800
C1940       C  0.86368180  0.86131626  0.23574625     0.21600
C1941       C  0.88661585  0.84169769  0.24558169    -0.34600
C1942       C  0.90371977  0.85747706  0.26029011     0.15700
O1943       O  0.91725539  0.89993445  0.27928678    -0.26700
C1944       C  0.93429274  0.87287617  0.28385239     0.05500
C1945       C  0.92691511  0.84570410  0.27251832    -0.31500
O1946       O  0.84406456  0.85132498  0.22197713    -0.23400
C1947       C  0.82635564  0.87814276  0.21777518    -0.03400
C1948       C  0.83452086  0.90558543  0.22871576    -0.17800
H1949       H  0.87169130  0.93571743  0.25864275     0.20200
H1950       H  0.89052285  0.81584371  0.24217053     0.18600
H1951       H  0.93728423  0.82098333  0.27315822     0.18500
H1952       H  0.82357333  0.93007765  0.22841461     0.14400
C1953       C  0.61064030  0.75943609  0.36180180     0.29800
C1954       C  0.63540061  0.73636452  0.35723333    -0.36500
C1955       C  0.65059838  0.72046467  0.37252758     0.15800
C1956       C  0.64138514  0.72617060  0.39099014     0.21600
C1957       C  0.61697828  0.74955099  0.39556109    -0.34600
C1958       C  0.60247526  0.76612164  0.38031790     0.15700
O1959       O  0.59276259  0.77677610  0.34977806    -0.26700
C1960       C  0.57356219  0.79526910  0.36080270     0.05500
C1961       C  0.57860375  0.78988650  0.37990015    -0.31500
O1962       O  0.65804279  0.70773028  0.40302202    -0.23400
C1963       C  0.67873457  0.69063379  0.39215721    -0.03400
C1964       C  0.67531069  0.69750038  0.37307403    -0.17800
H1965       H  0.64234175  0.73121344  0.34279603     0.20200
H1966       H  0.60985097  0.75451777  0.40998991     0.18600
H1967       H  0.56570551  0.80105197  0.39168095     0.18500
H1968       H  0.68850602  0.68650755  0.36134830     0.14400
C1969       C  0.90353884  0.76915158  0.37848280     0.29800
C1970       C  0.89045463  0.75607393  0.39520919    -0.36500
C1971       C  0.86650245  0.73116437  0.39302367     0.15800
C1972       C  0.85595094  0.72024638  0.37556544     0.21600
C1973       C  0.86878744  0.73354589  0.35886195    -0.34600
C1974       C  0.89297667  0.75816682  0.36104194     0.15700
O1975       O  0.92752854  0.79117338  0.37723719    -0.26700
C1976       C  0.93244762  0.79425799  0.35878834     0.05500
C1977       C  0.91156437  0.77444859  0.34798457    -0.31500
O1978       O  0.83435011  0.69590913  0.37674168    -0.23400
C1979       C  0.83104948  0.69103294  0.39516398    -0.03400
C1980       C  0.85038259  0.71229563  0.40604298    -0.17800
H1981       H  0.89903676  0.76409631  0.40893915     0.20200
H1982       H  0.86110276  0.72465458  0.34513416     0.18600
H1983       H  0.91089999  0.77174350  0.33281152     0.18500
H1984       H  0.85267045  0.71323414  0.42123357     0.14400
C1985       C  0.86216818  0.51039973  0.39246802     0.29800
C1986       C  0.88827075  0.98877954  0.39693421    -0.36500
C1987       C  0.90157774  0.97079100  0.38181513     0.15800
C1988       C  0.89025580  0.97414468  0.36353059     0.21600
C1989       C  0.86337622  0.49483970  0.35919682    -0.34600
C1990       C  0.84986992  0.51258693  0.37433355     0.15700
O1991       O  0.84797691  0.53168260  0.40403417    -0.26700
C1992       C  0.82601608  0.54728199  0.39320149     0.05500
C1993       C  0.82577007  0.53616013  0.37466710    -0.31500
O1994       O  0.90824936  0.95727155  0.35134197    -0.23400
C1995       C  0.93087689  0.94241804  0.36203574    -0.03400
C1996       C  0.92781591  0.94962050  0.38110163    -0.17800
H1997       H  0.89829493  0.98701509  0.41105787     0.20200
H1998       H  0.85441859  0.49782680  0.34491303     0.18600
H1999       H  0.81120807  0.54539645  0.36296444     0.18500
H2000       H  0.94361487  0.94161251  0.39258175     0.14400
C2001       C  0.60865531  0.98452500  0.36157242     0.29800
C2002       C  0.63221640  0.50898290  0.35741362    -0.36500
C2003       C  0.64757056  0.52393885  0.37298518     0.15800
C2004       C  0.64019654  0.51555650  0.39137340     0.21600
C2005       C  0.61676565  0.99103672  0.39551918    -0.34600
C2006       C  0.60154299  0.97598465  0.37996735     0.15700
O2007       O  0.59065188  0.96783700  0.34926519    -0.26700
C2008       C  0.57195037  0.94833912  0.35997584     0.05500
C2009       C  0.57774332  0.95226110  0.37915440    -0.31500
O2010       O  0.65715847  0.53308662  0.40374937    -0.23400
C2011       C  0.67573360  0.55278448  0.39312506    -0.03400
C2012       C  0.67082671  0.54823211  0.37389528    -0.17800
H2013       H  0.63798141  0.51602584  0.34307778     0.20200
H2014       H  0.61066508  0.98432309  0.40986126     0.18600
H2015       H  0.56561760  0.93991223  0.39079678     0.18500
H2016       H  0.68246226  0.56121669  0.36231551     0.14400
C2017       C  0.76247765  0.96723913  0.51001629     0.29800
C2018       C  0.78248371  0.98213385  0.49625480    -0.36500
C2019       C  0.76745790  0.50736355  0.48570872     0.15800
C2020       C  0.73493612  0.51707016  0.48845415     0.21600
C2021       C  0.71485053  0.00195606  0.50207644    -0.34600
C2022       C  0.72992675  0.97689112  0.51269923     0.15700
O2023       O  0.77177040  0.94396519  0.52188853    -0.26700
C2024       C  0.74486627  0.93870727  0.53232670     0.05500
C2025       C  0.71799302  0.95836724  0.52720213    -0.31500
O2026       O  0.72620516  0.54176060  0.47741752    -0.23400
C2027       C  0.75344433  0.54797158  0.46746596    -0.03400
C2028       C  0.77993184  0.52731367  0.47197137    -0.17800
H2029       H  0.80811392  0.47495164  0.49415149     0.20200
H2030       H  0.68943323  0.00961484  0.50444659     0.18600
H2031       H  0.69345136  0.95912017  0.53339636     0.18500
H2032       H  0.80478651  0.52736376  0.46617518     0.14400
C2033       C  0.73516265  0.76772297  0.51294262     0.29800
C2034       C  0.71670186  0.75179238  0.49883199    -0.36500
C2035       C  0.73367401  0.72770451  0.48837529     0.15800
C2036       C  0.76652785  0.71967619  0.49159791     0.21600
C2037       C  0.78498020  0.73553296  0.50578368    -0.34600
C2038       C  0.76801271  0.75973259  0.51622151     0.15700
O2039       O  0.72442375  0.79154398  0.52408540    -0.26700
C2040       C  0.75069988  0.79890396  0.53466969     0.05500
C2041       C  0.77853225  0.77987685  0.53044164    -0.31500
O2042       O  0.77739115  0.69643631  0.48005681    -0.23400
C2043       C  0.75114008  0.68961776  0.46930518    -0.03400
C2044       C  0.72326484  0.70829497  0.47385548    -0.17800
H2045       H  0.69097947  0.75794868  0.49609316     0.20200
H2046       H  0.81078723  0.72958773  0.50840980     0.18600
H2047       H  0.80301589  0.78111286  0.53673037     0.18500
H2048       H  0.69886378  0.70752710  0.46743788     0.14400
C2049       C  0.60035086  0.71777792  0.62328615     0.29800
C2050       C  0.61660985  0.72905008  0.60700297    -0.36500
C2051       C  0.63674151  0.75719909  0.60928044     0.15800
C2052       C  0.64098050  0.77275817  0.62645926     0.21600
C2053       C  0.62471843  0.76157430  0.64267461    -0.34600
C2054       C  0.60423607  0.73384348  0.64033959     0.15700
O2055       O  0.57890903  0.69308434  0.62425349    -0.26700
C2056       C  0.56875145  0.69371650  0.64209565     0.05500
C2057       C  0.58372424  0.71848297  0.65274307    -0.31500
O2058       O  0.66060865  0.79876573  0.62542343    -0.23400
C2059       C  0.66889173  0.80015865  0.60732461    -0.03400
C2060       C  0.65471677  0.77500119  0.59654816    -0.17800
H2061       H  0.61319460  0.71719464  0.59344750     0.20200
H2062       H  0.62728718  0.77408802  0.65609960     0.18600
H2063       H  0.57933204  0.72482232  0.66735689     0.18500
H2064       H  0.65729230  0.77056223  0.58157551     0.14400
C2065       C  0.85981607  0.76801005  0.61227622     0.29800
C2066       C  0.88792007  0.74872966  0.60838728    -0.36500
C2067       C  0.89985367  0.72943214  0.62331428     0.15800
C2068       C  0.88542303  0.72932418  0.64095211     0.21600
C2069       C  0.85686392  0.74811993  0.64473372    -0.34600
C2070       C  0.84469430  0.76719605  0.62972159     0.15700
O2071       O  0.84543162  0.78897425  0.60063221    -0.26700
C2072       C  0.82048113  0.80140365  0.61064863     0.05500
C2073       C  0.81863722  0.78864225  0.62880626    -0.31500
O2074       O  0.90184974  0.71072232  0.65307741    -0.23400
C2075       C  0.92681479  0.69852193  0.64295167    -0.03400
C2076       C  0.92668699  0.70913581  0.62433741    -0.17800
H2077       H  0.89999450  0.74919772  0.59477485     0.20200
H2078       H  0.84529506  0.74830748  0.65848827     0.18600
H2079       H  0.80133956  0.79512425  0.63987597     0.18500
H2080       H  0.94437161  0.70341234  0.61332716     0.14400
C2081       C  0.89161804  0.52365409  0.62444876     0.29800
C2082       C  0.87356409  0.51374861  0.60846515    -0.36500
C2083       C  0.85386150  0.98532273  0.61058094     0.15800
C2084       C  0.85171904  0.96815686  0.62734921     0.21600
C2085       C  0.86993883  0.97789024  0.64326072    -0.34600
C2086       C  0.88993276  0.50600471  0.64106982     0.15700
O2087       O  0.91236471  0.54889024  0.62551553    -0.26700
C2088       C  0.92424399  0.54712292  0.64299002     0.05500
C2089       C  0.91123727  0.52091746  0.65328988    -0.31500
O2090       O  0.83203263  0.94218148  0.62617204    -0.23400
C2091       C  0.82169305  0.94244958  0.60837138    -0.03400
C2092       C  0.83449827  0.96866457  0.59796288    -0.17800
H2093       H  0.87516731  0.52696276  0.59524072     0.20200
H2094       H  0.86896443  0.96420630  0.65635194     0.18600
H2095       H  0.91707474  0.01365973  0.66759613     0.18500
H2096       H  0.83027567  0.97442575  0.58326245     0.14400
C2097       C  0.59080765  0.51343503  0.62546818     0.29800
C2098       C  0.60132199  0.99677055  0.60918965    -0.36500
C2099       C  0.62870250  0.97570933  0.61138104     0.15800
C2100       C  0.64497438  0.97169169  0.62836230     0.21600
C2101       C  0.63426459  0.48817782  0.64470470    -0.34600
C2102       C  0.60655189  0.50892116  0.64256842     0.15700
O2103       O  0.56548519  0.53395806  0.62662458    -0.26700
C2104       C  0.56473777  0.54249886  0.64472255     0.05500
C2105       C  0.58963299  0.52763771  0.65537230    -0.31500
O2106       O  0.66993516  0.95063242  0.62717818    -0.23400
C2107       C  0.66937031  0.94081739  0.60926446    -0.03400
C2108       C  0.64418704  0.95550395  0.59878514    -0.17800
H2109       H  0.58879503  0.99975593  0.59579373     0.20200
H2110       H  0.64645933  0.48479286  0.65816639     0.18600
H2111       H  0.59451705  0.53030608  0.67030074     0.18500
H2112       H  0.63808971  0.95162930  0.58408402     0.14400
C2113       C  0.64621895  0.63830292  0.76126570     0.29800
C2114       C  0.63084852  0.65708284  0.74712706    -0.36500
C2115       C  0.60673899  0.64057636  0.73639823     0.15800
C2116       C  0.59834264  0.60782780  0.73935752     0.21600
C2117       C  0.61387019  0.58897069  0.75342562    -0.34600
C2118       C  0.63792721  0.60551994  0.76419857     0.15700
O2119       O  0.66934090  0.64882239  0.77297671    -0.26700
C2120       C  0.67595182  0.62245997  0.78355158     0.05500
C2121       C  0.65714726  0.59478300  0.77875699    -0.31500
O2122       O  0.57441136  0.59770010  0.72805466    -0.23400
C2123       C  0.56744093  0.62430095  0.71773648    -0.03400
C2124       C  0.58686363  0.65167222  0.72223512    -0.17800
H2125       H  0.63706171  0.68283290  0.74476440     0.20200
H2126       H  0.60740546  0.56332090  0.75591898     0.18600
H2127       H  0.65777562  0.57033221  0.78499424     0.18500
H2128       H  0.58593435  0.67628612  0.71621920     0.14400
C2129       C  0.89515204  0.63977837  0.74024162     0.29800
C2130       C  0.88022737  0.65935218  0.75425364    -0.36500
C2131       C  0.85590295  0.64366917  0.76521878     0.15800
C2132       C  0.84692057  0.61098628  0.76255399     0.21600
C2133       C  0.86182836  0.59143216  0.74856293    -0.34600
C2134       C  0.88609477  0.60711315  0.73759613     0.15700
O2135       O  0.91875757  0.64922564  0.72855638    -0.26700
C2136       C  0.92487423  0.62226926  0.71828956     0.05500
C2137       C  0.90521533  0.59533291  0.72325675    -0.31500
O2138       O  0.82331460  0.60145576  0.77417510    -0.23400
C2139       C  0.81703339  0.62834134  0.78444226    -0.03400
C2140       C  0.83661218  0.65538952  0.77953891    -0.17800
H2141       H  0.88710379  0.68499543  0.75644877     0.20200
H2142       H  0.85493392  0.56579350  0.74636256     0.18600
H2143       H  0.90539214  0.57058520  0.71735262     0.18500
H2144       H  0.83628754  0.68011842  0.78546370     0.14400
C2145       C  0.98579232  0.97888072  0.98988614     0.29800
C2146       C  0.96663717  0.99815863  0.00224326    -0.36500
C2147       C  0.98425920  0.51967093  0.01415125     0.15800
C2148       C  0.51846130  0.52190946  0.01408068     0.21600
C2149       C  0.53767162  0.50273978  0.00161277    -0.34600
C2150       C  0.51997781  0.98138856  0.98955371     0.15700
O2151       O  0.97431390  0.95723521  0.97754054    -0.26700
C2152       C  0.00142399  0.94585132  0.96900357     0.05500
C2153       C  0.53059991  0.96000287  0.97590038    -0.31500
O2154       O  0.52968140  0.54373156  0.02645571    -0.23400
C2155       C  0.00225779  0.55572903  0.03445595    -0.03400
C2156       C  0.97330014  0.54170618  0.02729876    -0.17800
H2157       H  0.93980519  0.99659880  0.00249353     0.20200
H2158       H  0.56448988  0.50447339  0.00127073     0.18600
H2159       H  0.55588784  0.95504120  0.97157497     0.18500
H2160       H  0.94787636  0.54712653  0.03117069     0.14400
C2161       C  0.98207603  0.72816590  0.01195966     0.29800
C2162       C  0.96134852  0.74697418  0.00022461    -0.36500
C2163       C  0.97749372  0.76789506  0.98744553     0.15800
C2164       C  0.51165900  0.77023230  0.98637681     0.21600
C2165       C  0.53236918  0.75106474  0.99790824    -0.34600
C2166       C  0.51623615  0.73007340  0.01063156     0.15700
O2167       O  0.97232332  0.70759432  0.02521868    -0.26700
C2168       C  0.00059224  0.69609430  0.03238630     0.05500
C2169       C  0.52873487  0.70904895  0.02381320    -0.31500
O2170       O  0.52146906  0.79244714  0.97403411    -0.23400
C2171       C  0.49325823  0.80429845  0.96700187    -0.03400
C2172       C  0.96505772  0.78984051  0.97471676    -0.17800
H2173       H  0.93454948  0.74571574  0.00117284     0.20200
H2174       H  0.55916688  0.75277499  0.99720125     0.18600
H2175       H  0.55454270  0.70391884  0.02696496     0.18500
H2176       H  0.93926960  0.79541384  0.97176625     0.14400
C2177       C  0.63617552  0.73993821  0.85905744     0.29800
C2178       C  0.61383228  0.76567711  0.85516899    -0.36500
C2179       C  0.59770016  0.77946135  0.87082469     0.15800
C2180       C  0.60318369  0.76873678  0.88904148     0.21600
C2181       C  0.62527179  0.74288253  0.89290991    -0.34600
C2182       C  0.64131823  0.72910515  0.87728255     0.15700
O2183       O  0.65507366  0.72433756  0.84672074    -0.26700
C2184       C  0.67237447  0.70328746  0.85726603     0.05500
C2185       C  0.66470488  0.70507895  0.87633000    -0.31500
O2186       O  0.58624244  0.78580998  0.90158987    -0.23400
C2187       C  0.56957042  0.80761825  0.89125930    -0.03400
C2188       C  0.57566232  0.80484691  0.87203890    -0.17800
H2189       H  0.60973234  0.77468792  0.84100009     0.20200
H2190       H  0.63002748  0.73446053  0.90713355     0.18600
H2191       H  0.67555902  0.69130041  0.88787981     0.18500
H2192       H  0.56575532  0.81979054  0.86069168     0.14400
C2193       C  0.85339203  0.73374258  0.86293183     0.29800
C2194       C  0.87980925  0.75497187  0.85841933    -0.36500
C2195       C  0.89373019  0.77273240  0.87349708     0.15800
C2196       C  0.88208209  0.77024226  0.89172322     0.21600
C2197       C  0.85618501  0.74838004  0.89631573    -0.34600
C2198       C  0.84264519  0.73016959  0.88128192     0.15700
O2199       O  0.83572660  0.71605073  0.85090657    -0.26700
C2200       C  0.81388169  0.70037918  0.86174490     0.05500
C2201       C  0.81712149  0.70798277  0.88077412    -0.31500
O2202       O  0.89732205  0.79076826  0.90338241    -0.23400
C2203       C  0.91940323  0.80617576  0.89253833    -0.03400
C2204       C  0.91846986  0.79575733  0.87385158    -0.17800
H2205       H  0.88849652  0.75790055  0.84409437     0.20200
H2206       H  0.84685561  0.74615778  0.91055141     0.18600
H2207       H  0.80195541  0.69946102  0.89237708     0.18500
H2208       H  0.93304913  0.80478321  0.86213052     0.14400
C2209       C  0.88226071  0.98600353  0.89255902     0.29800
C2210       C  0.85857496  0.51053083  0.89644782    -0.36500
C2211       C  0.84404298  0.52570222  0.88069615     0.15800
C2212       C  0.85231558  0.51744785  0.86239583     0.21600
C2213       C  0.87615918  0.99320135  0.85851801    -0.34600
C2214       C  0.89053653  0.97797504  0.87423141     0.15700
O2215       O  0.89815598  0.96766406  0.90504527    -0.26700
C2216       C  0.91679250  0.94779336  0.89447922     0.05500
C2217       C  0.91306289  0.95315720  0.87525491    -0.31500
O2218       O  0.83454379  0.53360325  0.84982231    -0.23400
C2219       C  0.81463746  0.55243261  0.86020715    -0.03400
C2220       C  0.81950385  0.54869533  0.87949403    -0.17800
H2221       H  0.85145800  0.51683064  0.91071019     0.20200
H2222       H  0.88251791  0.98616857  0.84424761     0.18600
H2223       H  0.92487791  0.94019638  0.86369830     0.18500
H2224       H  0.80617091  0.56046525  0.89092424     0.14400
C2225       C  0.65294835  0.50586869  0.86775261     0.29800
C2226       C  0.64821037  0.97374113  0.87463462    -0.36500
C2227       C  0.61611399  0.96625586  0.88083324     0.15800
C2228       C  0.59005628  0.98843305  0.87980597     0.21600
C2229       C  0.59490619  0.52082944  0.87311141    -0.34600
C2230       C  0.62737241  0.52867490  0.86741676     0.15700
O2231       O  0.68122123  0.51825433  0.86172433    -0.26700
C2232       C  0.67392413  0.54959318  0.85784356     0.05500
C2233       C  0.64085706  0.55764965  0.86115805    -0.31500
O2234       O  0.56194457  0.97569871  0.88607994    -0.23400
C2235       C  0.57051935  0.94533965  0.89154456    -0.03400
C2236       C  0.60385205  0.93819451  0.88870220    -0.17800
H2237       H  0.66830891  0.95597869  0.87539230     0.20200
H2238       H  0.57494070  0.53876541  0.87264932     0.18600
H2239       H  0.62866409  0.58130013  0.85920417     0.18500
H2240       H  0.61693530  0.91536823  0.89171498     0.14400
loop_ 
_geom_bond_atom_site_label_1 
_geom_bond_atom_site_label_2 
_geom_bond_distance 
_geom_bond_site_symmetry_2 
_ccdc_geom_bond_type 
O1           C16   1.257       .  A
O1           Al9   1.906       .  S
C2           O12   1.257       .  A
C2            O3   1.259       .  A
C2          C507   1.461       .  S
O3           Al5   1.906   1_455  S
O4            C6   1.263       .  A
O4        Al1125   1.895       .  S
Al5          O13   1.903   1_655  S
Al5        O1124   1.895       .  S
Al5        O1135   1.884       .  S
Al5          O14   1.790       .  S
C6           O19   1.266       .  A
C6          C523   1.472       .  S
O7         C1137   1.257       .  A
O7           Al9   1.890       .  S
O8         C1141   1.262   1_455  A
O8          Al18   1.899       .  S
Al9          O22   1.921       .  S
Al9          O19   1.927       .  S
Al9        O1134   1.788       .  S
O10          C17   1.258   1_455  A
O10         Al18   1.900       .  S
O11          C20   1.264       .  A
O11         Al18   1.920       .  S
O12         Al18   1.894       .  S
O13          C20   1.260       .  A
O14         Al18   1.789   1_655  S
O14       Al1129   1.788       .  S
O15          C16   1.255       .  A
O15       Al1125   1.884       .  S
C16         C536   1.464       .  S
C17        O1127   1.257       .  A
C17         C491   1.463       .  S
C20         C555   1.464       .  S
C21          O22   1.264       .  A
C21        O1128   1.262       .  A
C21         C472   1.475       .  S
O23          C38   1.258       .  A
O23         Al31   1.908       .  S
C24          O34   1.260       .  A
C24          O25   1.262       .  A
C24         C539   1.461       .  S
O25         Al27   1.909       .  S
O26          C28   1.261       .  A
O26         Al27   1.893       .  S
Al27         O35   1.902       .  S
Al27         O37   1.878       .  S
Al27         O36   1.787       .  S
C28          O41   1.264       .  A
C28         C520   1.466       .  S
O29          C39   1.257       .  A
O29         Al31   1.900       .  S
O30          C43   1.262       .  A
O30         Al40   1.893       .  S
Al31         O44   1.917       .  S
Al31         O41   1.916       .  S
Al31         O36   1.786       .  S
O32          C39   1.257       .  A
O32         Al40   1.905       .  S
O33          C42   1.260       .  A
O33         Al40   1.918       .  S
O34         Al40   1.894       .  S
O35          C42   1.258       .  A
O36         Al40   1.790       .  S
O37          C38   1.254       .  A
C38         C504   1.463       .  S
C39         C459   1.469       .  S
C42         C552   1.462       .  S
C43          O44   1.265       .  A
C43         C440   1.466       .  S
O45          C60   1.260       .  A
O45         Al53   1.899       .  S
C46          O56   1.258       .  A
C46          O47   1.260       .  A
C46         C379   1.466       .  S
O47         Al49   1.911       .  S
O48          C50   1.258       .  A
O48         Al49   1.889       .  S
Al49         O57   1.890       .  S
Al49         O59   1.917       .  S
Al49         O58   1.792       .  S
C50          O63   1.262       .  A
C50         C392   1.465       .  S
O51          C61   1.259       .  A
O51         Al53   1.891       .  S
O52          C65   1.259       .  A
O52         Al62   1.896       .  S
Al53         O66   1.909       .  S
Al53         O63   1.915       .  S
Al53         O58   1.787       .  S
O54          C61   1.262       .  A
O54         Al62   1.917       .  S
O55          C64   1.264       .  A
O55         Al62   1.920       .  S
O56         Al62   1.897       .  S
O57          C64   1.259       .  A
O58         Al62   1.786       .  S
O59          C60   1.262       .  A
C60         C411   1.466       .  S
C61         C360   1.467       .  S
C64         C427   1.467       .  S
C65          O66   1.260       .  A
C65         C344   1.466       .  S
O67          C82   1.264       .  A
O67       Al1195   1.915   1_455  S
C68          O78   1.263       .  A
C68          O69   1.260       .  A
C68         C408   1.465       .  S
O69       Al1191   1.894       .  S
O70          C72   1.260       .  A
O70       Al1191   1.909       .  S
Al71         O79   1.908   1_655  S
Al71         O81   1.895   1_655  S
Al71       O1189   1.894       .  S
Al71       O1190   1.909       .  S
Al71       O1200   1.793       .  S
C72          O85   1.259       .  A
C72         C395   1.465       .  S
O73          C83   1.261       .  A
O73         Al75   1.916       .  S
O74          C87   1.260       .  A
O74         Al84   1.910   1_455  S
Al75         O85   1.901       .  S
Al75       O1187   1.915       .  S
Al75       O1208   1.891       .  S
Al75         O80   1.785       .  S
O76          C83   1.260       .  A
O76       Al1204   1.898       .  S
O77          C86   1.259       .  A
O77         Al84   1.901   1_455  S
O78       Al1204   1.910       .  S
O79          C86   1.259       .  A
O80       Al1191   1.793       .  S
O80       Al1204   1.786       .  S
O81          C82   1.259       .  A
C82         C376   1.467       .  S
C83         C456   1.471       .  S
Al84       O1196   1.898       .  S
Al84       O1198   1.910       .  S
Al84       O1200   1.786       .  S
C86         C424   1.466       .  S
C87          O88   1.259       .  A
C87         C443   1.465       .  S
O88       Al1195   1.891   1_455  S
O89         C104   1.261       .  A
O89         Al97   1.914       .  S
C90         O100   1.260       .  A
C90          O91   1.259       .  A
C90         C283   1.460       .  S
O91         Al93   1.887       .  S
O92          C94   1.259       .  A
O92         Al93   1.900       .  S
Al93        O101   1.896       .  S
Al93        O103   1.883       .  S
Al93        O102   1.794       .  S
C94         O107   1.259       .  A
C94         C299   1.465       .  S
O95         C105   1.262       .  A
O95         Al97   1.918       .  S
O96         C109   1.259       .  A
O96        Al106   1.907       .  S
Al97        O110   1.892       .  S
Al97        O107   1.900       .  S
Al97        O102   1.793       .  S
O98         C105   1.258       .  A
O98        Al106   1.886       .  S
O99         C108   1.259       .  A
O99        Al106   1.895       .  S
O100       Al106   1.908       .  S
O101        C108   1.258       .  A
O102       Al106   1.788       .  S
O103        C104   1.257       .  A
C104        C312   1.464       .  S
C105        C363   1.467       .  S
C108        C331   1.461       .  S
C109        O110   1.258       .  A
C109        C347   1.465       .  S
O111        C126   1.259       .  A
O111      Al1239   1.907       .  S
C112        O122   1.262       .  A
C112        O113   1.256       .  A
C112        C315   1.460       .  S
O113      Al1235   1.877       .  S
O114        C116   1.259       .  A
O114      Al1235   1.900       .  S
Al115       O123   1.894       .  S
Al115       O125   1.881       .  S
Al115      O1233   1.877   1_455  S
Al115      O1234   1.900   1_455  S
Al115       O124   1.796       .  S
C116        O129   1.261       .  A
C116        C296   1.464       .  S
O117        C127   1.259       .  A
O117       Al119   1.908       .  S
O118        C131   1.263       .  A
O118       Al128   1.919       .  S
Al119       O129   1.903       .  S
Al119      O1231   1.907       .  S
Al119      O1252   1.897       .  S
Al119      O1244   1.792       .  S
O120        C127   1.256       .  A
O120      Al1248   1.890       .  S
O121        C130   1.257       .  A
O121       Al128   1.895       .  S
O122      Al1248   1.917       .  S
O123        C130   1.258       .  A
O124       Al128   1.791       .  S
O124      Al1239   1.792       .  S
O125        C126   1.256       .  A
C126        C280   1.458       .  S
C127        C264   1.466       .  S
Al128      O1240   1.890   1_455  S
Al128      O1242   1.917   1_455  S
C130        C328   1.462       .  S
C131        O132   1.260       .  A
C131        C248   1.472       .  S
O132      Al1239   1.897       .  S
O133        C148   1.258       .  A
O133       Al141   1.902       .  S
C134        O144   1.254       .  A
C134        O135   1.256       .  A
C134        C219   1.465       .  S
O135       Al137   1.893       .  S
O136        C138   1.256       .  A
O136      Al1257   1.884       .  S
Al137       O145   1.886       .  S
Al137      O1256   1.884       .  S
Al137      O1267   1.898       .  S
Al137       O146   1.808       .  S
C138        O151   1.260       .  A
C138        C235   1.462       .  S
O139       C1269   1.258       .  A
O139       Al141   1.897       .  S
O140        C153   1.253       .  A
O140       Al150   1.880       .  S
Al141       O154   1.899       .  S
Al141       O151   1.907       .  S
Al141      O1266   1.806       .  S
O142        C149   1.262       .  A
O142       Al150   1.911       .  S
O143        C152   1.262       .  A
O143       Al150   1.917       .  S
O144       Al150   1.890       .  S
O145        C152   1.257       .  A
O146       Al150   1.803       .  S
O146      Al1261   1.806       .  S
O147        C148   1.256       .  A
O147      Al1257   1.898       .  S
C148        C184   1.469       .  S
C149       O1259   1.258       .  A
C149        C475   1.474       .  S
C152        C200   1.469       .  S
C153       O1274   1.257       .  A
C153        C488   1.463       .  S
O154       C1273   1.257       .  A
O155        C170   1.259       .  A
O155       Al163   1.903       .  S
C156        O166   1.260       .  A
C156        O157   1.258       .  A
C156        C187   1.466       .  S
O157       Al159   1.902       .  S
O158        C160   1.259       .  A
O158       Al159   1.888       .  S
Al159       O167   1.893       .  S
Al159       O169   1.899       .  S
Al159       O168   1.794       .  S
C160        O173   1.262       .  A
C160        C232   1.462       .  S
O161        C171   1.260       .  A
O161       Al163   1.896       .  S
O162        C175   1.258       .  A
O162       Al172   1.893       .  S
Al163       O176   1.910       .  S
Al163       O173   1.912       .  S
Al163       O168   1.788       .  S
O164        C171   1.262       .  A
O164       Al172   1.922       .  S
O165        C174   1.264       .  A
O165       Al172   1.920       .  S
O166       Al172   1.903       .  S
O167        C174   1.260       .  A
O168       Al172   1.787       .  S
O169        C170   1.258       .  A
C170        C216   1.464       .  S
C171        C251   1.474       .  S
C174        C203   1.469       .  S
C175        O176   1.261       .  A
C175        C267   1.466       .  S
C177        C182   1.380       .  A
C177        C178   1.404       .  A
C177        O183   1.317       .  A
C178        C179   1.401       .  A
C178        H189   1.082       .  S
C179        C188   1.363       .  A
C179        C180   1.380       .  A
C180        C181   1.404       .  A
C180        O186   1.317       .  A
C181        C182   1.402       .  A
C181        H190   1.082       .  S
C182        C185   1.364       .  A
O183        C184   1.331       .  A
C184        C185   1.391       .  A
C185        H191   1.082       .  S
O186        C187   1.331       .  A
C187        C188   1.390       .  A
C188        H192   1.082       .  S
C193        C198   1.381       .  A
C193        C194   1.406       .  A
C193        O199   1.321       .  A
C194        C195   1.405       .  A
C194        H205   1.082       .  S
C195        C204   1.364       .  A
C195        C196   1.381       .  A
C196        C197   1.402       .  A
C196        O202   1.318       .  A
C197        C198   1.402       .  A
C197        H206   1.082       .  S
C198        C201   1.360       .  A
O199        C200   1.332       .  A
C200        C201   1.390       .  A
C201        H207   1.083       .  S
O202        C203   1.330       .  A
C203        C204   1.392       .  A
C204        H208   1.082       .  S
C209        C214   1.381       .  A
C209        C770   1.401       .  A
C209        O215   1.319       .  A
C210        C211   1.401       .  A
C210        C769   1.401   1_545  A
C210        H221   1.082       .  S
C211        C220   1.358       .  A
C211        C212   1.381       .  A
C212        C773   1.402       .  A
C212        O218   1.319       .  A
C213        C214   1.402       .  A
C213        C772   1.402       .  A
C213        H222   1.082       .  S
C214        C217   1.357       .  A
O215        C216   1.329       .  A
C216        C217   1.391       .  A
C217        H223   1.083       .  S
O218        C219   1.330       .  A
C219        C220   1.390       .  A
C220        H224   1.083       .  S
C225        C230   1.381       .  A
C225        C786   1.403       .  A
C225        O231   1.317       .  A
C226        C227   1.402   1_565  A
C226        C785   1.403       .  A
C226        H237   1.082       .  S
C227        C236   1.362       .  A
C227        C228   1.381       .  A
C228        C789   1.402       .  A
C228        O234   1.317       .  A
C229        C230   1.401       .  A
C229        C788   1.402       .  A
C229        H238   1.082       .  S
C230        C233   1.360       .  A
O231        C232   1.330       .  A
C232        C233   1.389       .  A
C233        H239   1.083       .  S
O234        C235   1.329       .  A
C235        C236   1.390       .  A
C236        H240   1.083       .  S
C241        C246   1.380       .  A
C241        C242   1.403       .  A
C241        O247   1.319       .  A
C242        C243   1.403       .  A
C242        H253   1.082       .  S
C243        C252   1.362       .  A
C243        C244   1.380       .  A
C244        C245   1.406       .  A
C244        O250   1.321       .  A
C245        C246   1.405       .  A
C245        H254   1.082       .  S
C246        C249   1.364       .  A
O247        C248   1.331       .  A
C248        C249   1.393       .  A
C249        H255   1.082       .  S
O250        C251   1.332       .  A
C251        C252   1.391       .  A
C252        H256   1.083       .  S
C257        C262   1.381       .  A
C257        C258   1.402       .  A
C257        O263   1.318       .  A
C258        C259   1.401       .  A
C258        H269   1.082       .  S
C259        C268   1.360       .  A
C259        C260   1.381       .  A
C260        C261   1.402       .  A
C260        O266   1.318       .  A
C261        C262   1.402       .  A
C261        H270   1.082       .  S
C262        C265   1.360       .  A
O263        C264   1.330       .  A
C264        C265   1.391       .  A
C265        H271   1.083       .  S
O266        C267   1.330       .  A
C267        C268   1.391       .  A
C268        H272   1.083       .  S
C273        C278   1.381       .  A
C273        C274   1.402       .  A
C273        O279   1.318       .  A
C274        C275   1.402       .  A
C274        H285   1.082       .  S
C275        C284   1.360       .  A
C275        C276   1.381       .  A
C276        C277   1.400       .  A
C276        O282   1.316       .  A
C277        C278   1.400       .  A
C277        H286   1.082       .  S
C278        C281   1.358       .  A
O279        C280   1.329       .  A
C280        C281   1.388       .  A
C281        H287   1.083       .  S
O282        C283   1.329       .  A
C283        C284   1.390       .  A
C284        H288   1.082       .  S
C289        C294   1.381       .  A
C289        C290   1.403       .  A
C289        O295   1.316       .  A
C290        C291   1.401       .  A
C290        H301   1.082       .  S
C291        C300   1.364       .  A
C291        C292   1.381       .  A
C292        C293   1.402       .  A
C292        O298   1.315       .  A
C293        C294   1.399       .  A
C293        H302   1.082       .  S
C294        C297   1.362       .  A
O295        C296   1.331       .  A
C296        C297   1.389       .  A
C297        H303   1.082       .  S
O298        C299   1.329       .  A
C299        C300   1.391       .  A
C300        H304   1.082       .  S
C305        C310   1.381       .  A
C305        C866   1.402   1_545  A
C305        O311   1.318       .  A
C306        C307   1.402       .  A
C306        C865   1.402       .  A
C306        H317   1.082       .  S
C307        C316   1.360       .  A
C307        C308   1.382       .  A
C308        C869   1.401       .  A
C308        O314   1.318       .  A
C309        C310   1.401   1_565  A
C309        C868   1.401       .  A
C309        H318   1.082       .  S
C310        C313   1.359       .  A
O311        C312   1.330       .  A
C312        C313   1.389       .  A
C313        H319   1.083       .  S
O314        C315   1.328       .  A
C315        C316   1.389       .  A
C316        H320   1.083       .  S
C321        C326   1.381       .  A
C321        C882   1.401       .  A
C321        O327   1.318       .  A
C322        C323   1.401       .  A
C322        C881   1.401   1_545  A
C322        H333   1.082       .  S
C323        C332   1.357       .  A
C323        C324   1.381       .  A
C324        C885   1.399   1_545  A
C324        O330   1.317       .  A
C325        C326   1.399       .  A
C325        C884   1.399       .  A
C325        H334   1.082       .  S
C326        C329   1.356       .  A
O327        C328   1.330       .  A
C328        C329   1.389       .  A
C329        H335   1.083       .  S
O330        C331   1.328       .  A
C331        C332   1.391       .  A
C332        H336   1.083       .  S
C337        C342   1.381       .  A
C337        C338   1.403       .  A
C337        O343   1.317       .  A
C338        C899   1.401       .  A
C338        H909   1.082       .  S
C339        C348   1.362       .  A
C339        C340   1.381       .  A
C339        C898   1.401   1_545  A
C340        C901   1.402       .  A
C340        O346   1.316       .  A
C341        C342   1.400       .  A
C341        C900   1.402       .  A
C341        H350   1.082       .  S
C342        C345   1.361       .  A
O343        C344   1.330       .  A
C344        C345   1.390       .  A
C345        H351   1.082       .  S
O346        C347   1.329       .  A
C347        C348   1.391       .  A
C348        H352   1.083       .  S
H349        C898   1.082       .  S
C353        C358   1.381       .  A
C353        C354   1.401       .  A
C353        O359   1.317       .  A
C354        C355   1.401       .  A
C354        H365   1.082       .  S
C355        C364   1.359       .  A
C355        C356   1.381       .  A
C356        C357   1.404       .  A
C356        O362   1.319       .  A
C357        C358   1.403       .  A
C357        H366   1.082       .  S
C358        C361   1.362       .  A
O359        C360   1.330       .  A
C360        C361   1.391       .  A
C361        H367   1.082       .  S
O362        C363   1.331       .  A
C363        C364   1.390       .  A
C364        H368   1.083       .  S
C369        C374   1.381       .  A
C369        C370   1.405       .  A
C369        O375   1.320       .  A
C370        C371   1.404       .  A
C370        H381   1.082       .  S
C371        C380   1.364       .  A
C371        C372   1.381       .  A
C372        C373   1.400       .  A
C372        O378   1.316       .  A
C373        C374   1.400       .  A
C373        H382   1.082       .  S
C374        C377   1.358       .  A
O375        C376   1.332       .  A
C376        C377   1.389       .  A
C377        H383   1.083       .  S
O378        C379   1.329       .  A
C379        C380   1.392       .  A
C380        H384   1.082       .  S
C385        C390   1.381       .  A
C385        C386   1.401       .  A
C385        O391   1.317       .  A
C386        C387   1.400       .  A
C386        H397   1.082       .  S
C387        C396   1.358       .  A
C387        C388   1.381       .  A
C388        C389   1.404       .  A
C388        O394   1.320       .  A
C389        C390   1.403       .  A
C389        H398   1.082       .  S
C390        C393   1.362       .  A
O391        C392   1.329       .  A
C392        C393   1.391       .  A
C393        H399   1.082       .  S
O394        C395   1.331       .  A
C395        C396   1.389       .  A
C396        H400   1.083       .  S
C401        C406   1.381       .  A
C401        C402   1.404       .  A
C401        O407   1.319       .  A
C402        C963   1.403   1_545  A
C402        H413   1.082       .  S
C403        C412   1.363       .  A
C403        C404   1.381       .  A
C403        C962   1.403       .  A
C404        C405   1.401       .  A
C404        O410   1.317       .  A
C405        C966   1.400       .  A
C405        H414   1.082       .  S
C406        C409   1.359       .  A
C406        C965   1.400   1_545  A
O407        C408   1.330       .  A
C408        C409   1.390       .  A
C409        H975   1.083       .  S
O410        C411   1.330       .  A
C411        C412   1.391       .  A
C412        H416   1.082       .  S
H415        C969   1.083       .  S
C417        C422   1.381       .  A
C417        C978   1.402   1_545  A
C417        O423   1.316       .  A
C418        C419   1.401       .  A
C418        C977   1.402       .  A
C418        H429   1.082       .  S
C419        C428   1.361       .  A
C419        C420   1.381       .  A
C420        C981   1.405       .  A
C420        O426   1.319       .  A
C421        C422   1.403   1_565  A
C421        C980   1.405       .  A
C421        H430   1.082       .  S
C422        C425   1.364       .  A
O423        C424   1.330       .  A
C424        C425   1.391       .  A
C425        H431   1.082       .  S
O426        C427   1.331       .  A
C427        C428   1.390       .  A
C428        H432   1.083       .  S
C433        C438   1.381       .  A
C433        C434   1.402       .  A
C433        O439   1.317       .  A
C434        C435   1.401       .  A
C434        H445   1.082       .  S
C435        C444   1.360       .  A
C435        C436   1.381       .  A
C436        C437   1.403       .  A
C436        O442   1.317       .  A
C437        C438   1.402       .  A
C437        H446   1.082       .  S
C438        C441   1.361       .  A
O439        C440   1.330       .  A
C440        C441   1.391       .  A
C441        H447   1.083       .  S
O442        C443   1.330       .  A
C443        C444   1.390       .  A
C444        H448   1.083       .  S
C449        C454   1.380       .  A
C449        C450   1.405       .  A
C449        O455   1.319       .  A
C450        C451   1.403       .  A
C450        H461   1.082       .  S
C451        C460   1.364       .  A
C451        C452   1.380       .  A
C452        C453   1.403       .  A
C452        O458   1.317       .  A
C453        C454   1.402       .  A
C453        H462   1.082       .  S
C454        C457   1.362       .  A
O455        C456   1.332       .  A
C456        C457   1.391       .  A
C457        H463   1.082       .  S
O458        C459   1.331       .  A
C459        C460   1.391       .  A
C460        H464   1.082       .  S
C465        C466   1.403   1_556  A
C465       C1590   1.380       .  A
C465        O471   1.319       .  A
C466       C1027   1.402       .  A
C466        H477   1.082       .  S
C467        C476   1.362       .  A
C467       C1026   1.402   1_545  A
C467       C1588   1.380       .  A
C468        C469   1.407       .  A
C468       C1587   1.380   1_455  A
C468        O474   1.322       .  A
C469       C1030   1.406   1_544  A
C469        H478   1.082       .  S
C470        C473   1.366       .  A
C470       C1585   1.380   1_455  A
C470       C1029   1.406   1_556  A
O471        C472   1.331       .  A
C472       C1593   1.394       .  A
C473       C1592   1.394       .  A
C473        H479   1.082       .  S
O474       C1595   1.333       .  A
C475        C476   1.391       .  A
C475       O1594   1.333       .  A
C476        H480   1.082       .  S
C481        C482   1.402       .  A
C481       C1606   1.381       .  A
C481        O487   1.316       .  A
C482        C483   1.401   1_554  A
C482        H493   1.082       .  S
C483        C492   1.361       .  A
C483       C1604   1.381       .  A
C484        C485   1.401       .  A
C484       C1603   1.381   1_455  A
C484        O490   1.316       .  A
C485        C486   1.400   1_556  A
C485        H494   1.082       .  S
C486        C489   1.360       .  A
C486       C1601   1.381   1_455  A
O487        C488   1.330       .  A
C488       C1609   1.389       .  A
C489       C1608   1.389       .  A
C489        H495   1.083       .  S
O490        C491   1.329   1_455  A
C491       C1612   1.390       .  A
C492       C1611   1.390       .  A
C492        H496   1.082       .  S
C497        C502   1.381       .  A
C497        C498   1.402       .  A
C497        O503   1.320       .  A
C498        C499   1.402       .  A
C498        H509   1.082       .  S
C499        C508   1.358       .  A
C499        C500   1.382       .  A
C500        C501   1.398       .  A
C500        O506   1.316       .  A
C501        C502   1.399       .  A
C501        H510   1.082       .  S
C502        C505   1.353       .  A
O503        C504   1.329       .  A
C504        C505   1.390       .  A
C505        H511   1.083       .  S
O506        C507   1.328       .  A
C507        C508   1.391       .  A
C508        H512   1.083       .  S
C513        C518   1.381       .  A
C513        C514   1.403       .  A
C513        O519   1.319       .  A
C514        C515   1.403       .  A
C514        H525   1.082       .  S
C515        C524   1.362       .  A
C515        C516   1.380       .  A
C516        C517   1.405       .  A
C516        O522   1.320       .  A
C517        C518   1.404       .  A
C517        H526   1.082       .  S
C518        C521   1.363       .  A
O519        C520   1.330       .  A
C520        C521   1.390       .  A
C521        H527   1.082       .  S
O522        C523   1.332       .  A
C523        C524   1.391       .  A
C524        H528   1.082       .  S
C529        C534   1.381       .  A
C529       C1090   1.402       .  A
C529        O535   1.320       .  A
C530        C531   1.403       .  A
C530       C1089   1.402   1_545  A
C530        H541   1.082       .  S
C531        C540   1.358       .  A
C531        C532   1.382       .  A
C532       C1093   1.398   1_545  A
C532        O538   1.317       .  A
C533        C534   1.399       .  A
C533       C1092   1.398       .  A
C533        H542   1.082       .  S
C534        C537   1.353       .  A
O535        C536   1.330       .  A
C536        C537   1.390       .  A
C537        H543   1.083       .  S
O538        C539   1.328       .  A
C539        C540   1.391       .  A
C540        H544   1.083       .  S
C545        C550   1.381       .  A
C545       C1106   1.399   1_545  A
C545        O551   1.316       .  A
C546        C547   1.399       .  A
C546       C1105   1.399       .  A
C546        H557   1.082       .  S
C547        C556   1.357       .  A
C547        C548   1.381       .  A
C548       C1109   1.406       .  A
C548        O554   1.321       .  A
C549        C550   1.405       .  A
C549       C1108   1.406   1_545  A
C549        H558   1.082       .  S
C550        C553   1.365       .  A
O551        C552   1.328       .  A
C552        C553   1.391       .  A
C553        H559   1.082       .  S
O554        C555   1.331       .  A
C555        C556   1.388       .  A
C556        H560   1.083       .  S
O561        C576   1.257       .  A
O561       Al569   1.906       .  S
C562        O572   1.257       .  A
C562        O563   1.259       .  A
C562       C1067   1.461       .  S
O563       Al565   1.906   1_455  S
O564        C566   1.263       .  A
O564      Al1685   1.895       .  S
Al565      O1684   1.895       .  S
Al565       O573   1.903   1_655  S
Al565      O1695   1.884       .  S
Al565       O574   1.790       .  S
C566        O579   1.266       .  A
C566       C1083   1.472       .  S
O567       C1697   1.257       .  A
O567       Al569   1.890       .  S
O568       C1701   1.262   1_455  A
O568       Al578   1.899       .  S
Al569       O582   1.921       .  S
Al569       O579   1.927       .  S
Al569      O1694   1.788       .  S
O570        C577   1.258   1_455  A
O570       Al578   1.900       .  S
O571        C580   1.264       .  A
O571       Al578   1.920       .  S
O572       Al578   1.894       .  S
O573        C580   1.260       .  A
O574      Al1689   1.788       .  S
O574       Al578   1.789   1_655  S
O575        C576   1.255       .  A
O575      Al1685   1.884       .  S
C576       C1096   1.464       .  S
C577       O1687   1.257       .  A
C577       C1051   1.463       .  S
C580       C1115   1.464       .  S
C581       O1688   1.262       .  A
C581        O582   1.264       .  A
C581       C1032   1.475       .  S
O583        C598   1.258       .  A
O583       Al591   1.908       .  S
C584        O594   1.260       .  A
C584        O585   1.262       .  A
C584       C1099   1.461       .  S
O585       Al587   1.909       .  S
O586        C588   1.261       .  A
O586       Al587   1.893       .  S
Al587       O595   1.902       .  S
Al587       O597   1.878       .  S
Al587       O596   1.787       .  S
C588        O601   1.264       .  A
C588       C1080   1.466       .  S
O589        C599   1.257       .  A
O589       Al591   1.900       .  S
O590        C603   1.262       .  A
O590       Al600   1.893       .  S
Al591       O604   1.917       .  S
Al591       O601   1.916       .  S
Al591       O596   1.786       .  S
O592        C599   1.257       .  A
O592       Al600   1.905       .  S
O593        C602   1.260       .  A
O593       Al600   1.918       .  S
O594       Al600   1.894       .  S
O595        C602   1.258       .  A
O596       Al600   1.790       .  S
O597        C598   1.254       .  A
C598       C1064   1.463       .  S
C599       C1019   1.469       .  S
C602       C1112   1.462       .  S
C603        O604   1.265       .  A
C603       C1000   1.466       .  S
O605        C620   1.260       .  A
O605       Al613   1.899       .  S
C606        O616   1.258       .  A
C606        O607   1.260       .  A
C606        C939   1.466       .  S
O607       Al609   1.911       .  S
O608        C610   1.258       .  A
O608       Al609   1.889       .  S
Al609       O617   1.890       .  S
Al609       O619   1.917       .  S
Al609       O618   1.792       .  S
C610        O623   1.262       .  A
C610        C952   1.465       .  S
O611        C621   1.259       .  A
O611       Al613   1.891       .  S
O612        C625   1.259       .  A
O612       Al622   1.896       .  S
Al613       O626   1.909       .  S
Al613       O623   1.915       .  S
Al613       O618   1.787       .  S
O614        C621   1.262       .  A
O614       Al622   1.917       .  S
O615        C624   1.264       .  A
O615       Al622   1.920       .  S
O616       Al622   1.897       .  S
O617        C624   1.259       .  A
O618       Al622   1.786       .  S
O619        C620   1.262       .  A
C620        C971   1.466       .  S
C621        C920   1.467       .  S
C624        C987   1.467       .  S
C625        O626   1.260       .  A
C625        C904   1.466       .  S
O627        C642   1.264       .  A
O627      Al1755   1.915   1_455  S
C628        O638   1.263       .  A
C628        O629   1.260       .  A
C628        C968   1.465       .  S
O629      Al1751   1.894       .  S
O630        C632   1.260       .  A
O630      Al1751   1.909       .  S
Al631      O1749   1.894       .  S
Al631      O1750   1.909       .  S
Al631       O639   1.908   1_655  S
Al631       O641   1.895   1_655  S
Al631      O1760   1.793       .  S
C632        O645   1.259       .  A
C632        C955   1.465       .  S
O633        C643   1.261       .  A
O633       Al635   1.916       .  S
O634        C647   1.260       .  A
O634       Al644   1.910   1_455  S
Al635      O1747   1.915       .  S
Al635      O1768   1.891       .  S
Al635       O645   1.901       .  S
Al635       O640   1.785       .  S
O636        C643   1.260       .  A
O636      Al1764   1.898       .  S
O637        C646   1.259       .  A
O637       Al644   1.901   1_455  S
O638      Al1764   1.910       .  S
O639        C646   1.259       .  A
O640      Al1751   1.793       .  S
O640      Al1764   1.786       .  S
O641        C642   1.259       .  A
C642        C936   1.467       .  S
C643       C1016   1.471       .  S
Al644      O1756   1.898       .  S
Al644      O1758   1.910       .  S
Al644      O1760   1.786       .  S
C646        C984   1.466       .  S
C647        O648   1.259       .  A
C647       C1003   1.465       .  S
O648      Al1755   1.891   1_455  S
O649        C664   1.261       .  A
O649       Al657   1.914       .  S
C650        O660   1.260       .  A
C650        O651   1.259       .  A
C650        C843   1.460       .  S
O651       Al653   1.887       .  S
O652        C654   1.259       .  A
O652       Al653   1.900       .  S
Al653       O661   1.896       .  S
Al653       O663   1.883       .  S
Al653       O662   1.794       .  S
C654        O667   1.259       .  A
C654        C859   1.465       .  S
O655        C665   1.262       .  A
O655       Al657   1.918       .  S
O656        C669   1.259       .  A
O656       Al666   1.907       .  S
Al657       O670   1.892       .  S
Al657       O667   1.900       .  S
Al657       O662   1.793       .  S
O658        C665   1.258       .  A
O658       Al666   1.886       .  S
O659        C668   1.259       .  A
O659       Al666   1.895       .  S
O660       Al666   1.908       .  S
O661        C668   1.258       .  A
O662       Al666   1.788       .  S
O663        C664   1.257       .  A
C664        C872   1.464       .  S
C665        C923   1.467       .  S
C668        C891   1.461       .  S
C669        O670   1.258       .  A
C669        C907   1.465       .  S
O671        C686   1.259       .  A
O671      Al1799   1.907       .  S
C672        O682   1.262       .  A
C672        O673   1.256       .  A
C672        C875   1.460       .  S
O673      Al1795   1.877       .  S
O674        C676   1.259       .  A
O674      Al1795   1.900       .  S
Al675      O1793   1.877   1_455  S
Al675      O1794   1.900   1_455  S
Al675       O683   1.894       .  S
Al675       O685   1.881       .  S
Al675       O684   1.796       .  S
C676        O689   1.261       .  A
C676        C856   1.464       .  S
O677        C687   1.259       .  A
O677       Al679   1.908       .  S
O678        C691   1.263       .  A
O678       Al688   1.919       .  S
Al679      O1791   1.907       .  S
Al679      O1812   1.897       .  S
Al679       O689   1.903       .  S
Al679      O1804   1.792       .  S
O680        C687   1.256       .  A
O680      Al1808   1.890       .  S
O681        C690   1.257       .  A
O681       Al688   1.895       .  S
O682      Al1808   1.917       .  S
O683        C690   1.258       .  A
O684      Al1799   1.792       .  S
O684       Al688   1.791       .  S
O685        C686   1.256       .  A
C686        C840   1.458       .  S
C687        C824   1.466       .  S
Al688      O1800   1.890   1_455  S
Al688      O1802   1.917   1_455  S
C690        C888   1.462       .  S
C691        O692   1.260       .  A
C691        C808   1.472       .  S
O692      Al1799   1.897       .  S
O693        C708   1.258       .  A
O693       Al701   1.902       .  S
C694        O704   1.254       .  A
C694        O695   1.256       .  A
C694        C779   1.465       .  S
O695       Al697   1.893       .  S
O696        C698   1.256       .  A
O696      Al1817   1.884       .  S
Al697      O1816   1.884       .  S
Al697       O705   1.886       .  S
Al697      O1827   1.898       .  S
Al697       O706   1.808       .  S
C698        O711   1.260       .  A
C698        C795   1.462       .  S
O699       C1829   1.258       .  A
O699       Al701   1.897       .  S
O700        C713   1.253       .  A
O700       Al710   1.880       .  S
Al701       O714   1.899       .  S
Al701       O711   1.907       .  S
Al701      O1826   1.806       .  S
O702        C709   1.262       .  A
O702       Al710   1.911       .  S
O703        C712   1.262       .  A
O703       Al710   1.917       .  S
O704       Al710   1.890       .  S
O705        C712   1.257       .  A
O706      Al1821   1.806       .  S
O706       Al710   1.803       .  S
O707        C708   1.256       .  A
O707      Al1817   1.898       .  S
C708        C744   1.469       .  S
C709       O1819   1.258       .  A
C709       C1035   1.474       .  S
C712        C760   1.469       .  S
C713       O1834   1.257       .  A
C713       C1048   1.463       .  S
O714       C1833   1.257       .  A
O715        C730   1.259       .  A
O715       Al723   1.903       .  S
C716        O726   1.260       .  A
C716        O717   1.258       .  A
C716        C747   1.466       .  S
O717       Al719   1.902       .  S
O718        C720   1.259       .  A
O718       Al719   1.888       .  S
Al719       O727   1.893       .  S
Al719       O729   1.899       .  S
Al719       O728   1.794       .  S
C720        O733   1.262       .  A
C720        C792   1.462       .  S
O721        C731   1.260       .  A
O721       Al723   1.896       .  S
O722        C735   1.258       .  A
O722       Al732   1.893       .  S
Al723       O736   1.910       .  S
Al723       O733   1.912       .  S
Al723       O728   1.788       .  S
O724        C731   1.262       .  A
O724       Al732   1.922       .  S
O725        C734   1.264       .  A
O725       Al732   1.920       .  S
O726       Al732   1.903       .  S
O727        C734   1.260       .  A
O728       Al732   1.787       .  S
O729        C730   1.258       .  A
C730        C776   1.464       .  S
C731        C811   1.474       .  S
C734        C763   1.469       .  S
C735        O736   1.261       .  A
C735        C827   1.466       .  S
C737        C742   1.380       .  A
C737        C738   1.404       .  A
C737        O743   1.317       .  A
C738        C739   1.401       .  A
C738        H749   1.082       .  S
C739        C748   1.363       .  A
C739        C740   1.380       .  A
C740        C741   1.404       .  A
C740        O746   1.317       .  A
C741        C742   1.402       .  A
C741        H750   1.082       .  S
C742        C745   1.364       .  A
O743        C744   1.331       .  A
C744        C745   1.391       .  A
C745        H751   1.082       .  S
O746        C747   1.331       .  A
C747        C748   1.390       .  A
C748        H752   1.082       .  S
C753        C758   1.381       .  A
C753        C754   1.406       .  A
C753        O759   1.321       .  A
C754        C755   1.405       .  A
C754        H765   1.082       .  S
C755        C764   1.364       .  A
C755        C756   1.381       .  A
C756        C757   1.402       .  A
C756        O762   1.318       .  A
C757        C758   1.402       .  A
C757        H766   1.082       .  S
C758        C761   1.360       .  A
O759        C760   1.332       .  A
C760        C761   1.390       .  A
C761        H767   1.083       .  S
O762        C763   1.330       .  A
C763        C764   1.392       .  A
C764        H768   1.082       .  S
C769        C774   1.381       .  A
C769        O775   1.319       .  A
C770        C771   1.401       .  A
C770        H781   1.082       .  S
C771        C780   1.358       .  A
C771        C772   1.381       .  A
C772        O778   1.319       .  A
C773        C774   1.402   1_545  A
C773        H782   1.082       .  S
C774        C777   1.357       .  A
O775        C776   1.329       .  A
C776        C777   1.391       .  A
C777        H783   1.083       .  S
O778        C779   1.330       .  A
C779        C780   1.390       .  A
C780        H784   1.083       .  S
C785        C790   1.381       .  A
C785        O791   1.317       .  A
C786        C787   1.402       .  A
C786        H797   1.082       .  S
C787        C796   1.362       .  A
C787        C788   1.381       .  A
C788        O794   1.317       .  A
C789        C790   1.401   1_545  A
C789        H798   1.082       .  S
C790        C793   1.360       .  A
O791        C792   1.330       .  A
C792        C793   1.389       .  A
C793        H799   1.083       .  S
O794        C795   1.329       .  A
C795        C796   1.390       .  A
C796        H800   1.083       .  S
C801        C806   1.380       .  A
C801        C802   1.403       .  A
C801        O807   1.319       .  A
C802        C803   1.403       .  A
C802        H813   1.082       .  S
C803        C812   1.362       .  A
C803        C804   1.380       .  A
C804        C805   1.406       .  A
C804        O810   1.321       .  A
C805        C806   1.405       .  A
C805        H814   1.082       .  S
C806        C809   1.364       .  A
O807        C808   1.331       .  A
C808        C809   1.393       .  A
C809        H815   1.082       .  S
O810        C811   1.332       .  A
C811        C812   1.391       .  A
C812        H816   1.083       .  S
C817        C822   1.381       .  A
C817        C818   1.402       .  A
C817        O823   1.318       .  A
C818        C819   1.401       .  A
C818        H829   1.082       .  S
C819        C828   1.360       .  A
C819        C820   1.381       .  A
C820        C821   1.402       .  A
C820        O826   1.318       .  A
C821        C822   1.402       .  A
C821        H830   1.082       .  S
C822        C825   1.360       .  A
O823        C824   1.330       .  A
C824        C825   1.391       .  A
C825        H831   1.083       .  S
O826        C827   1.330       .  A
C827        C828   1.391       .  A
C828        H832   1.083       .  S
C833        C838   1.381       .  A
C833        C834   1.402       .  A
C833        O839   1.318       .  A
C834        C835   1.402       .  A
C834        H845   1.082       .  S
C835        C844   1.360       .  A
C835        C836   1.381       .  A
C836        C837   1.400       .  A
C836        O842   1.316       .  A
C837        C838   1.400       .  A
C837        H846   1.082       .  S
C838        C841   1.358       .  A
O839        C840   1.329       .  A
C840        C841   1.388       .  A
C841        H847   1.083       .  S
O842        C843   1.329       .  A
C843        C844   1.390       .  A
C844        H848   1.083       .  S
C849        C854   1.381       .  A
C849        C850   1.403       .  A
C849        O855   1.316       .  A
C850        C851   1.401       .  A
C850        H861   1.082       .  S
C851        C860   1.364       .  A
C851        C852   1.381       .  A
C852        C853   1.402       .  A
C852        O858   1.315       .  A
C853        C854   1.399       .  A
C853        H862   1.082       .  S
C854        C857   1.362       .  A
O855        C856   1.331       .  A
C856        C857   1.389       .  A
C857        H863   1.082       .  S
O858        C859   1.329       .  A
C859        C860   1.391       .  A
C860        H864   1.082       .  S
C865        C870   1.381       .  A
C865        O871   1.318       .  A
C866        C867   1.402       .  A
C866        H877   1.082       .  S
C867        C876   1.360       .  A
C867        C868   1.382       .  A
C868        O874   1.318       .  A
C869        C870   1.401       .  A
C869        H878   1.082       .  S
C870        C873   1.359       .  A
O871        C872   1.330       .  A
C872        C873   1.389       .  A
C873        H879   1.083       .  S
O874        C875   1.328       .  A
C875        C876   1.389       .  A
C876        H880   1.083       .  S
C881        C886   1.381       .  A
C881        O887   1.318       .  A
C882        C883   1.401       .  A
C882        H893   1.082       .  S
C883        C892   1.357       .  A
C883        C884   1.381       .  A
C884        O890   1.317       .  A
C885        C886   1.399       .  A
C885        H894   1.082       .  S
C886        C889   1.356       .  A
O887        C888   1.330       .  A
C888        C889   1.389       .  A
C889        H895   1.083       .  S
O890        C891   1.328       .  A
C891        C892   1.391       .  A
C892        H896   1.083       .  S
C897        C902   1.381       .  A
C897        C898   1.403       .  A
C897        O903   1.317       .  A
C899        C908   1.362       .  A
C899        C900   1.381       .  A
C900        O906   1.316       .  A
C901        C902   1.400   1_545  A
C901        H910   1.082       .  S
C902        C905   1.361       .  A
O903        C904   1.330       .  A
C904        C905   1.390       .  A
C905        H911   1.082       .  S
O906        C907   1.329       .  A
C907        C908   1.391       .  A
C908        H912   1.083       .  S
C913        C918   1.381       .  A
C913        C914   1.401       .  A
C913        O919   1.317       .  A
C914        C915   1.401       .  A
C914        H925   1.082       .  S
C915        C924   1.359       .  A
C915        C916   1.381       .  A
C916        C917   1.404       .  A
C916        O922   1.319       .  A
C917        C918   1.403       .  A
C917        H926   1.082       .  S
C918        C921   1.362       .  A
O919        C920   1.330       .  A
C920        C921   1.391       .  A
C921        H927   1.082       .  S
O922        C923   1.331       .  A
C923        C924   1.390       .  A
C924        H928   1.083       .  S
C929        C934   1.381       .  A
C929        C930   1.405       .  A
C929        O935   1.320       .  A
C930        C931   1.404       .  A
C930        H941   1.082       .  S
C931        C940   1.364       .  A
C931        C932   1.381       .  A
C932        C933   1.400       .  A
C932        O938   1.316       .  A
C933        C934   1.400       .  A
C933        H942   1.082       .  S
C934        C937   1.358       .  A
O935        C936   1.332       .  A
C936        C937   1.389       .  A
C937        H943   1.083       .  S
O938        C939   1.329       .  A
C939        C940   1.392       .  A
C940        H944   1.082       .  S
C945        C950   1.381       .  A
C945        C946   1.401       .  A
C945        O951   1.317       .  A
C946        C947   1.400       .  A
C946        H957   1.082       .  S
C947        C956   1.358       .  A
C947        C948   1.381       .  A
C948        C949   1.404       .  A
C948        O954   1.320       .  A
C949        C950   1.403       .  A
C949        H958   1.082       .  S
C950        C953   1.362       .  A
O951        C952   1.329       .  A
C952        C953   1.391       .  A
C953        H959   1.082       .  S
O954        C955   1.331       .  A
C955        C956   1.389       .  A
C956        H960   1.083       .  S
C961        C966   1.381       .  A
C961        C962   1.404       .  A
C961        O967   1.319       .  A
C962        H973   1.082       .  S
C963        C972   1.363       .  A
C963        C964   1.381       .  A
C964        C965   1.401       .  A
C964        O970   1.317       .  A
C965        H974   1.082       .  S
C966        C969   1.359       .  A
O967        C968   1.330       .  A
C968        C969   1.390       .  A
O970        C971   1.330       .  A
C971        C972   1.391       .  A
C972        H976   1.082       .  S
C977        C982   1.381       .  A
C977        O983   1.316       .  A
C978        C979   1.401       .  A
C978        H989   1.082       .  S
C979        C988   1.361       .  A
C979        C980   1.381       .  A
C980        O986   1.319       .  A
C981        C982   1.403       .  A
C981        H990   1.082       .  S
C982        C985   1.364       .  A
O983        C984   1.330       .  A
C984        C985   1.391       .  A
C985        H991   1.082       .  S
O986        C987   1.331       .  A
C987        C988   1.390       .  A
C988        H992   1.083       .  S
C993        C998   1.381       .  A
C993        C994   1.402       .  A
C993        O999   1.317       .  A
C994        C995   1.401       .  A
C994       H1005   1.082       .  S
C995       C1004   1.360       .  A
C995        C996   1.381       .  A
C996        C997   1.403       .  A
C996       O1002   1.317       .  A
C997        C998   1.402       .  A
C997       H1006   1.082       .  S
C998       C1001   1.361       .  A
O999       C1000   1.330       .  A
C1000      C1001   1.391       .  A
C1001      H1007   1.083       .  S
O1002      C1003   1.330       .  A
C1003      C1004   1.390       .  A
C1004      H1008   1.083       .  S
C1009      C1014   1.380       .  A
C1009      C1010   1.405       .  A
C1009      O1015   1.319       .  A
C1010      C1011   1.403       .  A
C1010      H1021   1.082       .  S
C1011      C1020   1.364       .  A
C1011      C1012   1.380       .  A
C1012      C1013   1.403       .  A
C1012      O1018   1.317       .  A
C1013      C1014   1.402       .  A
C1013      H1022   1.082       .  S
C1014      C1017   1.362       .  A
O1015      C1016   1.332       .  A
C1016      C1017   1.391       .  A
C1017      H1023   1.082       .  S
O1018      C1019   1.331       .  A
C1019      C1020   1.391       .  A
C1020      H1024   1.082       .  S
C1025      C2150   1.380       .  A
C1025      C1026   1.403   1_556  A
C1025      O1031   1.319       .  A
C1026      H1037   1.082       .  S
C1027      C1036   1.362       .  A
C1027      C2148   1.380       .  A
C1028      C2147   1.380   1_455  A
C1028      C1029   1.407       .  A
C1028      O1034   1.322       .  A
C1029      H1038   1.082       .  S
C1030      C2145   1.380   1_455  A
C1030      C1033   1.366       .  A
O1031      C1032   1.331       .  A
C1032      C2153   1.394       .  A
C1033      C2152   1.394       .  A
C1033      H1039   1.082       .  S
O1034      C2155   1.333       .  A
C1035      C1036   1.391       .  A
C1035      O2154   1.333       .  A
C1036      H1040   1.082       .  S
C1041      C2166   1.381       .  A
C1041      C1042   1.402       .  A
C1041      O1047   1.316       .  A
C1042      C1043   1.401   1_554  A
C1042      H1053   1.082       .  S
C1043      C1052   1.361       .  A
C1043      C2164   1.381       .  A
C1044      C2163   1.381   1_455  A
C1044      C1045   1.401       .  A
C1044      O1050   1.316       .  A
C1045      C1046   1.400   1_556  A
C1045      H1054   1.082       .  S
C1046      C2161   1.381   1_455  A
C1046      C1049   1.360       .  A
O1047      C1048   1.330       .  A
C1048      C2169   1.389       .  A
C1049      C2168   1.389       .  A
C1049      H1055   1.083       .  S
O1050      C1051   1.329   1_455  A
C1051      C2172   1.390       .  A
C1052      C2171   1.390       .  A
C1052      H1056   1.082       .  S
C1057      C1062   1.381       .  A
C1057      C1058   1.402       .  A
C1057      O1063   1.320       .  A
C1058      C1059   1.402       .  A
C1058      H1069   1.082       .  S
C1059      C1068   1.358       .  A
C1059      C1060   1.382       .  A
C1060      C1061   1.398       .  A
C1060      O1066   1.316       .  A
C1061      C1062   1.399       .  A
C1061      H1070   1.082       .  S
C1062      C1065   1.353       .  A
O1063      C1064   1.329       .  A
C1064      C1065   1.390       .  A
C1065      H1071   1.083       .  S
O1066      C1067   1.328       .  A
C1067      C1068   1.391       .  A
C1068      H1072   1.083       .  S
C1073      C1078   1.381       .  A
C1073      C1074   1.403       .  A
C1073      O1079   1.319       .  A
C1074      C1075   1.403       .  A
C1074      H1085   1.082       .  S
C1075      C1084   1.362       .  A
C1075      C1076   1.380       .  A
C1076      C1077   1.405       .  A
C1076      O1082   1.320       .  A
C1077      C1078   1.404       .  A
C1077      H1086   1.082       .  S
C1078      C1081   1.363       .  A
O1079      C1080   1.330       .  A
C1080      C1081   1.390       .  A
C1081      H1087   1.082       .  S
O1082      C1083   1.332       .  A
C1083      C1084   1.391       .  A
C1084      H1088   1.082       .  S
C1089      C1094   1.381       .  A
C1089      O1095   1.320       .  A
C1090      C1091   1.403       .  A
C1090      H1101   1.082       .  S
C1091      C1100   1.358       .  A
C1091      C1092   1.382       .  A
C1092      O1098   1.317       .  A
C1093      C1094   1.399       .  A
C1093      H1102   1.082       .  S
C1094      C1097   1.353       .  A
O1095      C1096   1.330       .  A
C1096      C1097   1.390       .  A
C1097      H1103   1.083       .  S
O1098      C1099   1.328       .  A
C1099      C1100   1.391       .  A
C1100      H1104   1.083       .  S
C1105      C1110   1.381       .  A
C1105      O1111   1.316       .  A
C1106      C1107   1.399       .  A
C1106      H1117   1.082       .  S
C1107      C1116   1.357       .  A
C1107      C1108   1.381       .  A
C1108      O1114   1.321       .  A
C1109      C1110   1.405       .  A
C1109      H1118   1.082       .  S
C1110      C1113   1.365       .  A
O1111      C1112   1.328       .  A
C1112      C1113   1.391       .  A
C1113      H1119   1.082       .  S
O1114      C1115   1.331       .  A
C1115      C1116   1.388       .  A
C1116      H1120   1.083       .  S
O1121      C1136   1.257       .  A
O1121     Al1129   1.906       .  S
C1122      O1132   1.257       .  A
C1122      O1123   1.259       .  A
C1122      C1627   1.461       .  S
O1123     Al1125   1.906       .  S
O1124      C1126   1.263       .  A
Al1125     O1133   1.903       .  S
Al1125     O1134   1.790       .  S
C1126      O1139   1.266       .  A
C1126      C1643   1.472       .  S
O1127     Al1129   1.890       .  S
O1128     Al1138   1.899       .  S
Al1129     O1142   1.921       .  S
Al1129     O1139   1.927       .  S
O1130      C1137   1.258       .  A
O1130     Al1138   1.900       .  S
O1131      C1140   1.264       .  A
O1131     Al1138   1.920       .  S
O1132     Al1138   1.894       .  S
O1133      C1140   1.260       .  A
O1134     Al1138   1.789       .  S
O1135      C1136   1.255       .  A
C1136      C1656   1.464       .  S
C1137      C1611   1.463       .  S
C1140      C1675   1.464       .  S
C1141      O1142   1.264       .  A
C1141      C1592   1.475   1_655  S
O1143      C1158   1.258       .  A
O1143     Al1151   1.908       .  S
C1144      O1154   1.260       .  A
C1144      O1145   1.262       .  A
C1144      C1659   1.461       .  S
O1145     Al1147   1.909       .  S
O1146      C1148   1.261       .  A
O1146     Al1147   1.893       .  S
Al1147     O1155   1.902       .  S
Al1147     O1157   1.878       .  S
Al1147     O1156   1.787       .  S
C1148      O1161   1.264       .  A
C1148      C1640   1.466       .  S
O1149      C1159   1.257       .  A
O1149     Al1151   1.900       .  S
O1150      C1163   1.262       .  A
O1150     Al1160   1.893       .  S
Al1151     O1164   1.917       .  S
Al1151     O1161   1.916       .  S
Al1151     O1156   1.786       .  S
O1152      C1159   1.257       .  A
O1152     Al1160   1.905       .  S
O1153      C1162   1.260       .  A
O1153     Al1160   1.918       .  S
O1154     Al1160   1.894       .  S
O1155      C1162   1.258       .  A
O1156     Al1160   1.790       .  S
O1157      C1158   1.254       .  A
C1158      C1624   1.463       .  S
C1159      C1579   1.469       .  S
C1162      C1672   1.462       .  S
C1163      O1164   1.265       .  A
C1163      C1560   1.466       .  S
O1165      C1180   1.260       .  A
O1165     Al1173   1.899       .  S
C1166      O1176   1.258       .  A
C1166      O1167   1.260       .  A
C1166      C1499   1.466       .  S
O1167     Al1169   1.911       .  S
O1168      C1170   1.258       .  A
O1168     Al1169   1.889       .  S
Al1169     O1177   1.890       .  S
Al1169     O1179   1.917       .  S
Al1169     O1178   1.792       .  S
C1170      O1183   1.262       .  A
C1170      C1512   1.465       .  S
O1171      C1181   1.259       .  A
O1171     Al1173   1.891       .  S
O1172      C1185   1.259       .  A
O1172     Al1182   1.896       .  S
Al1173     O1186   1.909       .  S
Al1173     O1183   1.915       .  S
Al1173     O1178   1.787       .  S
O1174      C1181   1.262       .  A
O1174     Al1182   1.917       .  S
O1175      C1184   1.264       .  A
O1175     Al1182   1.920       .  S
O1176     Al1182   1.897       .  S
O1177      C1184   1.259       .  A
O1178     Al1182   1.786       .  S
O1179      C1180   1.262       .  A
C1180      C1531   1.466       .  S
C1181      C1480   1.467       .  S
C1184      C1547   1.467       .  S
C1185      O1186   1.260       .  A
C1185      C1464   1.466       .  S
O1187      C1202   1.264       .  A
C1188      O1198   1.263       .  A
C1188      O1189   1.260       .  A
C1188      C1528   1.465       .  S
O1190      C1192   1.260       .  A
Al1191     O1199   1.908       .  S
Al1191     O1201   1.895       .  S
C1192      O1205   1.259       .  A
C1192      C1515   1.465       .  S
O1193      C1203   1.261       .  A
O1193     Al1195   1.916       .  S
O1194      C1207   1.260       .  A
O1194     Al1204   1.910       .  S
Al1195     O1205   1.901       .  S
Al1195     O1200   1.785       .  S
O1196      C1203   1.260       .  A
O1197      C1206   1.259       .  A
O1197     Al1204   1.901       .  S
O1199      C1206   1.259       .  A
O1201      C1202   1.259       .  A
C1202      C1496   1.467       .  S
C1203      C1576   1.471       .  S
C1206      C1544   1.466       .  S
C1207      O1208   1.259       .  A
C1207      C1563   1.465       .  S
O1209      C1224   1.261       .  A
O1209     Al1217   1.914       .  S
C1210      O1220   1.260       .  A
C1210      O1211   1.259       .  A
C1210      C1403   1.460       .  S
O1211     Al1213   1.887       .  S
O1212      C1214   1.259       .  A
O1212     Al1213   1.900       .  S
Al1213     O1221   1.896       .  S
Al1213     O1223   1.883       .  S
Al1213     O1222   1.794       .  S
C1214      O1227   1.259       .  A
C1214      C1419   1.465       .  S
O1215      C1225   1.262       .  A
O1215     Al1217   1.918       .  S
O1216      C1229   1.259       .  A
O1216     Al1226   1.907       .  S
Al1217     O1230   1.892       .  S
Al1217     O1227   1.900       .  S
Al1217     O1222   1.793       .  S
O1218      C1225   1.258       .  A
O1218     Al1226   1.886       .  S
O1219      C1228   1.259       .  A
O1219     Al1226   1.895       .  S
O1220     Al1226   1.908       .  S
O1221      C1228   1.258       .  A
O1222     Al1226   1.788       .  S
O1223      C1224   1.257       .  A
C1224      C1432   1.464       .  S
C1225      C1483   1.467       .  S
C1228      C1451   1.461       .  S
C1229      O1230   1.258       .  A
C1229      C1467   1.465       .  S
O1231      C1246   1.259       .  A
C1232      O1242   1.262       .  A
C1232      O1233   1.256       .  A
C1232      C1435   1.460       .  S
O1234      C1236   1.259       .  A
Al1235     O1243   1.894       .  S
Al1235     O1245   1.881       .  S
Al1235     O1244   1.796       .  S
C1236      O1249   1.261       .  A
C1236      C1416   1.464       .  S
O1237      C1247   1.259       .  A
O1237     Al1239   1.908   1_655  S
O1238      C1251   1.263       .  A
O1238     Al1248   1.919       .  S
Al1239     O1249   1.903   1_455  S
O1240      C1247   1.256       .  A
O1241      C1250   1.257       .  A
O1241     Al1248   1.895       .  S
O1243      C1250   1.258       .  A
O1244     Al1248   1.791       .  S
O1245      C1246   1.256       .  A
C1246      C1400   1.458       .  S
C1247      C1384   1.466       .  S
C1250      C1448   1.462       .  S
C1251      O1252   1.260       .  A
C1251      C1368   1.472       .  S
O1253      C1268   1.258       .  A
O1253     Al1261   1.902       .  S
C1254      O1264   1.254       .  A
C1254      O1255   1.256       .  A
C1254      C1339   1.465       .  S
O1255     Al1257   1.893   1_655  S
O1256      C1258   1.256       .  A
Al1257     O1265   1.886   1_455  S
Al1257     O1266   1.808       .  S
C1258      O1271   1.260       .  A
C1258      C1355   1.462       .  S
O1259     Al1261   1.897       .  S
O1260      C1273   1.253   1_655  A
O1260     Al1270   1.880       .  S
Al1261     O1274   1.899       .  S
Al1261     O1271   1.907       .  S
O1262      C1269   1.262   1_655  A
O1262     Al1270   1.911       .  S
O1263      C1272   1.262       .  A
O1263     Al1270   1.917       .  S
O1264     Al1270   1.890       .  S
O1265      C1272   1.257       .  A
O1266     Al1270   1.803   1_455  S
O1267      C1268   1.256       .  A
C1268      C1304   1.469       .  S
C1269      C1595   1.474       .  S
C1272      C1320   1.469       .  S
C1273      C1608   1.463       .  S
O1275      C1290   1.259       .  A
O1275     Al1283   1.903       .  S
C1276      O1286   1.260       .  A
C1276      O1277   1.258       .  A
C1276      C1307   1.466       .  S
O1277     Al1279   1.902       .  S
O1278      C1280   1.259       .  A
O1278     Al1279   1.888       .  S
Al1279     O1287   1.893       .  S
Al1279     O1289   1.899       .  S
Al1279     O1288   1.794       .  S
C1280      O1293   1.262       .  A
C1280      C1352   1.462       .  S
O1281      C1291   1.260       .  A
O1281     Al1283   1.896       .  S
O1282      C1295   1.258       .  A
O1282     Al1292   1.893       .  S
Al1283     O1296   1.910       .  S
Al1283     O1293   1.912       .  S
Al1283     O1288   1.788       .  S
O1284      C1291   1.262       .  A
O1284     Al1292   1.922       .  S
O1285      C1294   1.264       .  A
O1285     Al1292   1.920       .  S
O1286     Al1292   1.903       .  S
O1287      C1294   1.260       .  A
O1288     Al1292   1.787       .  S
O1289      C1290   1.258       .  A
C1290      C1336   1.464       .  S
C1291      C1371   1.474       .  S
C1294      C1323   1.469       .  S
C1295      O1296   1.261       .  A
C1295      C1387   1.466       .  S
C1297      C1302   1.380       .  A
C1297      C1298   1.404       .  A
C1297      O1303   1.317       .  A
C1298      C1299   1.401       .  A
C1298      H1309   1.082       .  S
C1299      C1308   1.363       .  A
C1299      C1300   1.380       .  A
C1300      C1301   1.404       .  A
C1300      O1306   1.317       .  A
C1301      C1302   1.402       .  A
C1301      H1310   1.082       .  S
C1302      C1305   1.364       .  A
O1303      C1304   1.331       .  A
C1304      C1305   1.391       .  A
C1305      H1311   1.082       .  S
O1306      C1307   1.331       .  A
C1307      C1308   1.390       .  A
C1308      H1312   1.082       .  S
C1313      C1318   1.381       .  A
C1313      C1314   1.406       .  A
C1313      O1319   1.321       .  A
C1314      C1315   1.405       .  A
C1314      H1325   1.082       .  S
C1315      C1324   1.364       .  A
C1315      C1316   1.381       .  A
C1316      C1317   1.402       .  A
C1316      O1322   1.318       .  A
C1317      C1318   1.402       .  A
C1317      H1326   1.082       .  S
C1318      C1321   1.360       .  A
O1319      C1320   1.332       .  A
C1320      C1321   1.390       .  A
C1321      H1327   1.083       .  S
O1322      C1323   1.330       .  A
C1323      C1324   1.392       .  A
C1324      H1328   1.082       .  S
C1329      C1334   1.381       .  A
C1329      C1890   1.401       .  A
C1329      O1335   1.319       .  A
C1330      C1889   1.401   1_545  A
C1330      C1331   1.401       .  A
C1330      H1341   1.082       .  S
C1331      C1340   1.358       .  A
C1331      C1332   1.381       .  A
C1332      C1893   1.402       .  A
C1332      O1338   1.319       .  A
C1333      C1892   1.402       .  A
C1333      C1334   1.402       .  A
C1333      H1342   1.082       .  S
C1334      C1337   1.357       .  A
O1335      C1336   1.329       .  A
C1336      C1337   1.391       .  A
C1337      H1343   1.083       .  S
O1338      C1339   1.330       .  A
C1339      C1340   1.390       .  A
C1340      H1344   1.083       .  S
C1345      C1350   1.381       .  A
C1345      C1906   1.403       .  A
C1345      O1351   1.317       .  A
C1346      C1905   1.403       .  A
C1346      C1347   1.402   1_565  A
C1346      H1357   1.082       .  S
C1347      C1356   1.362       .  A
C1347      C1348   1.381       .  A
C1348      C1909   1.402       .  A
C1348      O1354   1.317       .  A
C1349      C1908   1.402       .  A
C1349      C1350   1.401       .  A
C1349      H1358   1.082       .  S
C1350      C1353   1.360       .  A
O1351      C1352   1.330       .  A
C1352      C1353   1.389       .  A
C1353      H1359   1.083       .  S
O1354      C1355   1.329       .  A
C1355      C1356   1.390       .  A
C1356      H1360   1.083       .  S
C1361      C1366   1.380       .  A
C1361      C1362   1.403       .  A
C1361      O1367   1.319       .  A
C1362      C1363   1.403       .  A
C1362      H1373   1.082       .  S
C1363      C1372   1.362       .  A
C1363      C1364   1.380       .  A
C1364      C1365   1.406       .  A
C1364      O1370   1.321       .  A
C1365      C1366   1.405       .  A
C1365      H1374   1.082       .  S
C1366      C1369   1.364       .  A
O1367      C1368   1.331       .  A
C1368      C1369   1.393       .  A
C1369      H1375   1.082       .  S
O1370      C1371   1.332       .  A
C1371      C1372   1.391       .  A
C1372      H1376   1.083       .  S
C1377      C1382   1.381       .  A
C1377      C1378   1.402       .  A
C1377      O1383   1.318       .  A
C1378      C1379   1.401       .  A
C1378      H1389   1.082       .  S
C1379      C1388   1.360       .  A
C1379      C1380   1.381       .  A
C1380      C1381   1.402       .  A
C1380      O1386   1.318       .  A
C1381      C1382   1.402       .  A
C1381      H1390   1.082       .  S
C1382      C1385   1.360       .  A
O1383      C1384   1.330       .  A
C1384      C1385   1.391       .  A
C1385      H1391   1.083       .  S
O1386      C1387   1.330       .  A
C1387      C1388   1.391       .  A
C1388      H1392   1.083       .  S
C1393      C1398   1.381       .  A
C1393      C1394   1.402       .  A
C1393      O1399   1.318       .  A
C1394      C1395   1.402       .  A
C1394      H1405   1.082       .  S
C1395      C1404   1.360       .  A
C1395      C1396   1.381       .  A
C1396      C1397   1.400       .  A
C1396      O1402   1.316       .  A
C1397      C1398   1.400       .  A
C1397      H1406   1.082       .  S
C1398      C1401   1.358       .  A
O1399      C1400   1.329       .  A
C1400      C1401   1.388       .  A
C1401      H1407   1.083       .  S
O1402      C1403   1.329       .  A
C1403      C1404   1.390       .  A
C1404      H1408   1.083       .  S
C1409      C1414   1.381       .  A
C1409      C1410   1.403       .  A
C1409      O1415   1.316       .  A
C1410      C1411   1.401       .  A
C1410      H1421   1.082       .  S
C1411      C1420   1.364       .  A
C1411      C1412   1.381       .  A
C1412      C1413   1.402       .  A
C1412      O1418   1.315       .  A
C1413      C1414   1.399       .  A
C1413      H1422   1.082       .  S
C1414      C1417   1.362       .  A
O1415      C1416   1.331       .  A
C1416      C1417   1.389       .  A
C1417      H1423   1.082       .  S
O1418      C1419   1.329       .  A
C1419      C1420   1.391       .  A
C1420      H1424   1.082       .  S
C1425      C1430   1.381       .  A
C1425      C1986   1.402   1_545  A
C1425      O1431   1.318       .  A
C1426      C1985   1.402       .  A
C1426      C1427   1.402       .  A
C1426      H1437   1.082       .  S
C1427      C1436   1.360       .  A
C1427      C1428   1.382       .  A
C1428      C1989   1.401       .  A
C1428      O1434   1.318       .  A
C1429      C1988   1.401       .  A
C1429      C1430   1.401   1_565  A
C1429      H1438   1.082       .  S
C1430      C1433   1.359       .  A
O1431      C1432   1.330       .  A
C1432      C1433   1.389       .  A
C1433      H1439   1.083       .  S
O1434      C1435   1.328       .  A
C1435      C1436   1.389       .  A
C1436      H1440   1.083       .  S
C1441      C1446   1.381       .  A
C1441      C2002   1.401       .  A
C1441      O1447   1.318       .  A
C1442      C2001   1.401   1_545  A
C1442      C1443   1.401       .  A
C1442      H1453   1.082       .  S
C1443      C1452   1.357       .  A
C1443      C1444   1.381       .  A
C1444      C2005   1.399   1_545  A
C1444      O1450   1.317       .  A
C1445      C2004   1.399       .  A
C1445      C1446   1.399       .  A
C1445      H1454   1.082       .  S
C1446      C1449   1.356       .  A
O1447      C1448   1.330       .  A
C1448      C1449   1.389       .  A
C1449      H1455   1.083       .  S
O1450      C1451   1.328       .  A
C1451      C1452   1.391       .  A
C1452      H1456   1.083       .  S
C1457      C1462   1.381       .  A
C1457      C1458   1.403       .  A
C1457      O1463   1.317       .  A
C1458      C2019   1.401       .  A
C1458      H2029   1.082       .  S
C1459      C2018   1.401   1_545  A
C1459      C1468   1.362       .  A
C1459      C1460   1.381       .  A
C1460      C2021   1.402       .  A
C1460      O1466   1.316       .  A
C1461      C2020   1.402       .  A
C1461      C1462   1.400       .  A
C1461      H1470   1.082       .  S
C1462      C1465   1.361       .  A
O1463      C1464   1.330       .  A
C1464      C1465   1.390       .  A
C1465      H1471   1.082       .  S
O1466      C1467   1.329       .  A
C1467      C1468   1.391       .  A
C1468      H1472   1.083       .  S
H1469      C2018   1.082       .  S
C1473      C1478   1.381       .  A
C1473      C1474   1.401       .  A
C1473      O1479   1.317       .  A
C1474      C1475   1.401       .  A
C1474      H1485   1.082       .  S
C1475      C1484   1.359       .  A
C1475      C1476   1.381       .  A
C1476      C1477   1.404       .  A
C1476      O1482   1.319       .  A
C1477      C1478   1.403       .  A
C1477      H1486   1.082       .  S
C1478      C1481   1.362       .  A
O1479      C1480   1.330       .  A
C1480      C1481   1.391       .  A
C1481      H1487   1.082       .  S
O1482      C1483   1.331       .  A
C1483      C1484   1.390       .  A
C1484      H1488   1.083       .  S
C1489      C1494   1.381       .  A
C1489      C1490   1.405       .  A
C1489      O1495   1.320       .  A
C1490      C1491   1.404       .  A
C1490      H1501   1.082       .  S
C1491      C1500   1.364       .  A
C1491      C1492   1.381       .  A
C1492      C1493   1.400       .  A
C1492      O1498   1.316       .  A
C1493      C1494   1.400       .  A
C1493      H1502   1.082       .  S
C1494      C1497   1.358       .  A
O1495      C1496   1.332       .  A
C1496      C1497   1.389       .  A
C1497      H1503   1.083       .  S
O1498      C1499   1.329       .  A
C1499      C1500   1.392       .  A
C1500      H1504   1.082       .  S
C1505      C1510   1.381       .  A
C1505      C1506   1.401       .  A
C1505      O1511   1.317       .  A
C1506      C1507   1.400       .  A
C1506      H1517   1.082       .  S
C1507      C1516   1.358       .  A
C1507      C1508   1.381       .  A
C1508      C1509   1.404       .  A
C1508      O1514   1.320       .  A
C1509      C1510   1.403       .  A
C1509      H1518   1.082       .  S
C1510      C1513   1.362       .  A
O1511      C1512   1.329       .  A
C1512      C1513   1.391       .  A
C1513      H1519   1.082       .  S
O1514      C1515   1.331       .  A
C1515      C1516   1.389       .  A
C1516      H1520   1.083       .  S
C1521      C1526   1.381       .  A
C1521      C1522   1.404       .  A
C1521      O1527   1.319       .  A
C1522      C2083   1.403   1_545  A
C1522      H1533   1.082       .  S
C1523      C2082   1.403       .  A
C1523      C1532   1.363       .  A
C1523      C1524   1.381       .  A
C1524      C1525   1.401       .  A
C1524      O1530   1.317       .  A
C1525      C2086   1.400       .  A
C1525      H1534   1.082       .  S
C1526      C2085   1.400   1_545  A
C1526      C1529   1.359       .  A
O1527      C1528   1.330       .  A
C1528      C1529   1.390       .  A
C1529      H2095   1.083       .  S
O1530      C1531   1.330       .  A
C1531      C1532   1.391       .  A
C1532      H1536   1.082       .  S
H1535      C2089   1.083       .  S
C1537      C1542   1.381       .  A
C1537      C2098   1.402   1_545  A
C1537      O1543   1.316       .  A
C1538      C2097   1.402       .  A
C1538      C1539   1.401       .  A
C1538      H1549   1.082       .  S
C1539      C1548   1.361       .  A
C1539      C1540   1.381       .  A
C1540      C2101   1.405       .  A
C1540      O1546   1.319       .  A
C1541      C2100   1.405       .  A
C1541      C1542   1.403   1_565  A
C1541      H1550   1.082       .  S
C1542      C1545   1.364       .  A
O1543      C1544   1.330       .  A
C1544      C1545   1.391       .  A
C1545      H1551   1.082       .  S
O1546      C1547   1.331       .  A
C1547      C1548   1.390       .  A
C1548      H1552   1.083       .  S
C1553      C1558   1.381       .  A
C1553      C1554   1.402       .  A
C1553      O1559   1.317       .  A
C1554      C1555   1.401       .  A
C1554      H1565   1.082       .  S
C1555      C1564   1.360       .  A
C1555      C1556   1.381       .  A
C1556      C1557   1.403       .  A
C1556      O1562   1.317       .  A
C1557      C1558   1.402       .  A
C1557      H1566   1.082       .  S
C1558      C1561   1.361       .  A
O1559      C1560   1.330       .  A
C1560      C1561   1.391       .  A
C1561      H1567   1.083       .  S
O1562      C1563   1.330       .  A
C1563      C1564   1.390       .  A
C1564      H1568   1.083       .  S
C1569      C1574   1.380       .  A
C1569      C1570   1.405       .  A
C1569      O1575   1.319       .  A
C1570      C1571   1.403       .  A
C1570      H1581   1.082       .  S
C1571      C1580   1.364       .  A
C1571      C1572   1.380       .  A
C1572      C1573   1.403       .  A
C1572      O1578   1.317       .  A
C1573      C1574   1.402       .  A
C1573      H1582   1.082       .  S
C1574      C1577   1.362       .  A
O1575      C1576   1.332       .  A
C1576      C1577   1.391       .  A
C1577      H1583   1.082       .  S
O1578      C1579   1.331       .  A
C1579      C1580   1.391       .  A
C1580      H1584   1.082       .  S
C1585      C1586   1.403   1_556  A
C1585      O1591   1.319       .  A
C1586      C2147   1.402       .  A
C1586      H1597   1.082       .  S
C1587      C2146   1.402   1_545  A
C1587      C1596   1.362       .  A
C1588      C1589   1.407       .  A
C1588      O1594   1.322       .  A
C1589      C2150   1.406   1_544  A
C1589      H1598   1.082       .  S
C1590      C2149   1.406   1_556  A
C1590      C1593   1.366       .  A
O1591      C1592   1.331   1_655  A
C1593      H1599   1.082       .  S
C1595      C1596   1.391   1_455  A
C1596      H1600   1.082       .  S
C1601      C1602   1.402       .  A
C1601      O1607   1.316       .  A
C1602      C1603   1.401   1_554  A
C1602      H1613   1.082       .  S
C1603      C1612   1.361       .  A
C1604      C1605   1.401       .  A
C1604      O1610   1.316       .  A
C1605      C1606   1.400   1_556  A
C1605      H1614   1.082       .  S
C1606      C1609   1.360       .  A
O1607      C1608   1.330   1_655  A
C1609      H1615   1.083       .  S
O1610      C1611   1.329       .  A
C1612      H1616   1.082       .  S
C1617      C1622   1.381       .  A
C1617      C1618   1.402       .  A
C1617      O1623   1.320       .  A
C1618      C1619   1.402       .  A
C1618      H1629   1.082       .  S
C1619      C1628   1.358       .  A
C1619      C1620   1.382       .  A
C1620      C1621   1.398       .  A
C1620      O1626   1.316       .  A
C1621      C1622   1.399       .  A
C1621      H1630   1.082       .  S
C1622      C1625   1.353       .  A
O1623      C1624   1.329       .  A
C1624      C1625   1.390       .  A
C1625      H1631   1.083       .  S
O1626      C1627   1.328       .  A
C1627      C1628   1.391       .  A
C1628      H1632   1.083       .  S
C1633      C1638   1.381       .  A
C1633      C1634   1.403       .  A
C1633      O1639   1.319       .  A
C1634      C1635   1.403       .  A
C1634      H1645   1.082       .  S
C1635      C1644   1.362       .  A
C1635      C1636   1.380       .  A
C1636      C1637   1.405       .  A
C1636      O1642   1.320       .  A
C1637      C1638   1.404       .  A
C1637      H1646   1.082       .  S
C1638      C1641   1.363       .  A
O1639      C1640   1.330       .  A
C1640      C1641   1.390       .  A
C1641      H1647   1.082       .  S
O1642      C1643   1.332       .  A
C1643      C1644   1.391       .  A
C1644      H1648   1.082       .  S
C1649      C1654   1.381       .  A
C1649      C2210   1.402       .  A
C1649      O1655   1.320       .  A
C1650      C2209   1.402   1_545  A
C1650      C1651   1.403       .  A
C1650      H1661   1.082       .  S
C1651      C1660   1.358       .  A
C1651      C1652   1.382       .  A
C1652      C2213   1.398   1_545  A
C1652      O1658   1.317       .  A
C1653      C2212   1.398       .  A
C1653      C1654   1.399       .  A
C1653      H1662   1.082       .  S
C1654      C1657   1.353       .  A
O1655      C1656   1.330       .  A
C1656      C1657   1.390       .  A
C1657      H1663   1.083       .  S
O1658      C1659   1.328       .  A
C1659      C1660   1.391       .  A
C1660      H1664   1.083       .  S
C1665      C1670   1.381       .  A
C1665      C2226   1.399   1_545  A
C1665      O1671   1.316       .  A
C1666      C2225   1.399       .  A
C1666      C1667   1.399       .  A
C1666      H1677   1.082       .  S
C1667      C1676   1.357       .  A
C1667      C1668   1.381       .  A
C1668      C2229   1.406       .  A
C1668      O1674   1.321       .  A
C1669      C2228   1.406   1_545  A
C1669      C1670   1.405       .  A
C1669      H1678   1.082       .  S
C1670      C1673   1.365       .  A
O1671      C1672   1.328       .  A
C1672      C1673   1.391       .  A
C1673      H1679   1.082       .  S
O1674      C1675   1.331       .  A
C1675      C1676   1.388       .  A
C1676      H1680   1.083       .  S
O1681      C1696   1.257       .  A
O1681     Al1689   1.906       .  S
C1682      O1692   1.257       .  A
C1682      O1683   1.259       .  A
C1682      C2187   1.461       .  S
O1683     Al1685   1.906       .  S
O1684      C1686   1.263       .  A
Al1685     O1693   1.903       .  S
Al1685     O1694   1.790       .  S
C1686      O1699   1.266       .  A
C1686      C2203   1.472       .  S
O1687     Al1689   1.890       .  S
O1688     Al1698   1.899       .  S
Al1689     O1702   1.921       .  S
Al1689     O1699   1.927       .  S
O1690      C1697   1.258       .  A
O1690     Al1698   1.900       .  S
O1691      C1700   1.264       .  A
O1691     Al1698   1.920       .  S
O1692     Al1698   1.894       .  S
O1693      C1700   1.260       .  A
O1694     Al1698   1.789       .  S
O1695      C1696   1.255       .  A
C1696      C2216   1.464       .  S
C1697      C2171   1.463       .  S
C1700      C2235   1.464       .  S
C1701      O1702   1.264       .  A
C1701      C2152   1.475   1_655  S
O1703      C1718   1.258       .  A
O1703     Al1711   1.908       .  S
C1704      O1714   1.260       .  A
C1704      O1705   1.262       .  A
C1704      C2219   1.461       .  S
O1705     Al1707   1.909       .  S
O1706      C1708   1.261       .  A
O1706     Al1707   1.893       .  S
Al1707     O1715   1.902       .  S
Al1707     O1717   1.878       .  S
Al1707     O1716   1.787       .  S
C1708      O1721   1.264       .  A
C1708      C2200   1.466       .  S
O1709      C1719   1.257       .  A
O1709     Al1711   1.900       .  S
O1710      C1723   1.262       .  A
O1710     Al1720   1.893       .  S
Al1711     O1724   1.917       .  S
Al1711     O1721   1.916       .  S
Al1711     O1716   1.786       .  S
O1712      C1719   1.257       .  A
O1712     Al1720   1.905       .  S
O1713      C1722   1.260       .  A
O1713     Al1720   1.918       .  S
O1714     Al1720   1.894       .  S
O1715      C1722   1.258       .  A
O1716     Al1720   1.790       .  S
O1717      C1718   1.254       .  A
C1718      C2184   1.463       .  S
C1719      C2139   1.469       .  S
C1722      C2232   1.462       .  S
C1723      O1724   1.265       .  A
C1723      C2120   1.466       .  S
O1725      C1740   1.260       .  A
O1725     Al1733   1.899       .  S
C1726      O1736   1.258       .  A
C1726      O1727   1.260       .  A
C1726      C2059   1.466       .  S
O1727     Al1729   1.911       .  S
O1728      C1730   1.258       .  A
O1728     Al1729   1.889       .  S
Al1729     O1737   1.890       .  S
Al1729     O1739   1.917       .  S
Al1729     O1738   1.792       .  S
C1730      O1743   1.262       .  A
C1730      C2072   1.465       .  S
O1731      C1741   1.259       .  A
O1731     Al1733   1.891       .  S
O1732      C1745   1.259       .  A
O1732     Al1742   1.896       .  S
Al1733     O1746   1.909       .  S
Al1733     O1743   1.915       .  S
Al1733     O1738   1.787       .  S
O1734      C1741   1.262       .  A
O1734     Al1742   1.917       .  S
O1735      C1744   1.264       .  A
O1735     Al1742   1.920       .  S
O1736     Al1742   1.897       .  S
O1737      C1744   1.259       .  A
O1738     Al1742   1.786       .  S
O1739      C1740   1.262       .  A
C1740      C2091   1.466       .  S
C1741      C2040   1.467       .  S
C1744      C2107   1.467       .  S
C1745      O1746   1.260       .  A
C1745      C2024   1.466       .  S
O1747      C1762   1.264       .  A
C1748      O1758   1.263       .  A
C1748      O1749   1.260       .  A
C1748      C2088   1.465       .  S
O1750      C1752   1.260       .  A
Al1751     O1759   1.908       .  S
Al1751     O1761   1.895       .  S
C1752      O1765   1.259       .  A
C1752      C2075   1.465       .  S
O1753      C1763   1.261       .  A
O1753     Al1755   1.916       .  S
O1754      C1767   1.260       .  A
O1754     Al1764   1.910       .  S
Al1755     O1765   1.901       .  S
Al1755     O1760   1.785       .  S
O1756      C1763   1.260       .  A
O1757      C1766   1.259       .  A
O1757     Al1764   1.901       .  S
O1759      C1766   1.259       .  A
O1761      C1762   1.259       .  A
C1762      C2056   1.467       .  S
C1763      C2136   1.471       .  S
C1766      C2104   1.466       .  S
C1767      O1768   1.259       .  A
C1767      C2123   1.465       .  S
O1769      C1784   1.261       .  A
O1769     Al1777   1.914       .  S
C1770      O1780   1.260       .  A
C1770      O1771   1.259       .  A
C1770      C1963   1.460       .  S
O1771     Al1773   1.887       .  S
O1772      C1774   1.259       .  A
O1772     Al1773   1.900       .  S
Al1773     O1781   1.896       .  S
Al1773     O1783   1.883       .  S
Al1773     O1782   1.794       .  S
C1774      O1787   1.259       .  A
C1774      C1979   1.465       .  S
O1775      C1785   1.262       .  A
O1775     Al1777   1.918       .  S
O1776      C1789   1.259       .  A
O1776     Al1786   1.907       .  S
Al1777     O1790   1.892       .  S
Al1777     O1787   1.900       .  S
Al1777     O1782   1.793       .  S
O1778      C1785   1.258       .  A
O1778     Al1786   1.886       .  S
O1779      C1788   1.259       .  A
O1779     Al1786   1.895       .  S
O1780     Al1786   1.908       .  S
O1781      C1788   1.258       .  A
O1782     Al1786   1.788       .  S
O1783      C1784   1.257       .  A
C1784      C1992   1.464       .  S
C1785      C2043   1.467       .  S
C1788      C2011   1.461       .  S
C1789      O1790   1.258       .  A
C1789      C2027   1.465       .  S
O1791      C1806   1.259       .  A
C1792      O1802   1.262       .  A
C1792      O1793   1.256       .  A
C1792      C1995   1.460       .  S
O1794      C1796   1.259       .  A
Al1795     O1803   1.894       .  S
Al1795     O1805   1.881       .  S
Al1795     O1804   1.796       .  S
C1796      O1809   1.261       .  A
C1796      C1976   1.464       .  S
O1797      C1807   1.259       .  A
O1797     Al1799   1.908   1_655  S
O1798      C1811   1.263       .  A
O1798     Al1808   1.919       .  S
Al1799     O1809   1.903   1_455  S
O1800      C1807   1.256       .  A
O1801      C1810   1.257       .  A
O1801     Al1808   1.895       .  S
O1803      C1810   1.258       .  A
O1804     Al1808   1.791       .  S
O1805      C1806   1.256       .  A
C1806      C1960   1.458       .  S
C1807      C1944   1.466       .  S
C1810      C2008   1.462       .  S
C1811      O1812   1.260       .  A
C1811      C1928   1.472       .  S
O1813      C1828   1.258       .  A
O1813     Al1821   1.902       .  S
C1814      O1824   1.254       .  A
C1814      O1815   1.256       .  A
C1814      C1899   1.465       .  S
O1815     Al1817   1.893   1_655  S
O1816      C1818   1.256       .  A
Al1817     O1825   1.886   1_455  S
Al1817     O1826   1.808       .  S
C1818      O1831   1.260       .  A
C1818      C1915   1.462       .  S
O1819     Al1821   1.897       .  S
O1820      C1833   1.253   1_655  A
O1820     Al1830   1.880       .  S
Al1821     O1834   1.899       .  S
Al1821     O1831   1.907       .  S
O1822      C1829   1.262   1_655  A
O1822     Al1830   1.911       .  S
O1823      C1832   1.262       .  A
O1823     Al1830   1.917       .  S
O1824     Al1830   1.890       .  S
O1825      C1832   1.257       .  A
O1826     Al1830   1.803   1_455  S
O1827      C1828   1.256       .  A
C1828      C1864   1.469       .  S
C1829      C2155   1.474       .  S
C1832      C1880   1.469       .  S
C1833      C2168   1.463       .  S
O1835      C1850   1.259       .  A
O1835     Al1843   1.903       .  S
C1836      O1846   1.260       .  A
C1836      O1837   1.258       .  A
C1836      C1867   1.466       .  S
O1837     Al1839   1.902       .  S
O1838      C1840   1.259       .  A
O1838     Al1839   1.888       .  S
Al1839     O1847   1.893       .  S
Al1839     O1849   1.899       .  S
Al1839     O1848   1.794       .  S
C1840      O1853   1.262       .  A
C1840      C1912   1.462       .  S
O1841      C1851   1.260       .  A
O1841     Al1843   1.896       .  S
O1842      C1855   1.258       .  A
O1842     Al1852   1.893       .  S
Al1843     O1856   1.910       .  S
Al1843     O1853   1.912       .  S
Al1843     O1848   1.788       .  S
O1844      C1851   1.262       .  A
O1844     Al1852   1.922       .  S
O1845      C1854   1.264       .  A
O1845     Al1852   1.920       .  S
O1846     Al1852   1.903       .  S
O1847      C1854   1.260       .  A
O1848     Al1852   1.787       .  S
O1849      C1850   1.258       .  A
C1850      C1896   1.464       .  S
C1851      C1931   1.474       .  S
C1854      C1883   1.469       .  S
C1855      O1856   1.261       .  A
C1855      C1947   1.466       .  S
C1857      C1862   1.380       .  A
C1857      C1858   1.404       .  A
C1857      O1863   1.317       .  A
C1858      C1859   1.401       .  A
C1858      H1869   1.082       .  S
C1859      C1868   1.363       .  A
C1859      C1860   1.380       .  A
C1860      C1861   1.404       .  A
C1860      O1866   1.317       .  A
C1861      C1862   1.402       .  A
C1861      H1870   1.082       .  S
C1862      C1865   1.364       .  A
O1863      C1864   1.331       .  A
C1864      C1865   1.391       .  A
C1865      H1871   1.082       .  S
O1866      C1867   1.331       .  A
C1867      C1868   1.390       .  A
C1868      H1872   1.082       .  S
C1873      C1878   1.381       .  A
C1873      C1874   1.406       .  A
C1873      O1879   1.321       .  A
C1874      C1875   1.405       .  A
C1874      H1885   1.082       .  S
C1875      C1884   1.364       .  A
C1875      C1876   1.381       .  A
C1876      C1877   1.402       .  A
C1876      O1882   1.318       .  A
C1877      C1878   1.402       .  A
C1877      H1886   1.082       .  S
C1878      C1881   1.360       .  A
O1879      C1880   1.332       .  A
C1880      C1881   1.390       .  A
C1881      H1887   1.083       .  S
O1882      C1883   1.330       .  A
C1883      C1884   1.392       .  A
C1884      H1888   1.082       .  S
C1889      C1894   1.381       .  A
C1889      O1895   1.319       .  A
C1890      C1891   1.401       .  A
C1890      H1901   1.082       .  S
C1891      C1900   1.358       .  A
C1891      C1892   1.381       .  A
C1892      O1898   1.319       .  A
C1893      C1894   1.402   1_545  A
C1893      H1902   1.082       .  S
C1894      C1897   1.357       .  A
O1895      C1896   1.329       .  A
C1896      C1897   1.391       .  A
C1897      H1903   1.083       .  S
O1898      C1899   1.330       .  A
C1899      C1900   1.390       .  A
C1900      H1904   1.083       .  S
C1905      C1910   1.381       .  A
C1905      O1911   1.317       .  A
C1906      C1907   1.402       .  A
C1906      H1917   1.082       .  S
C1907      C1916   1.362       .  A
C1907      C1908   1.381       .  A
C1908      O1914   1.317       .  A
C1909      C1910   1.401   1_545  A
C1909      H1918   1.082       .  S
C1910      C1913   1.360       .  A
O1911      C1912   1.330       .  A
C1912      C1913   1.389       .  A
C1913      H1919   1.083       .  S
O1914      C1915   1.329       .  A
C1915      C1916   1.390       .  A
C1916      H1920   1.083       .  S
C1921      C1926   1.380       .  A
C1921      C1922   1.403       .  A
C1921      O1927   1.319       .  A
C1922      C1923   1.403       .  A
C1922      H1933   1.082       .  S
C1923      C1932   1.362       .  A
C1923      C1924   1.380       .  A
C1924      C1925   1.406       .  A
C1924      O1930   1.321       .  A
C1925      C1926   1.405       .  A
C1925      H1934   1.082       .  S
C1926      C1929   1.364       .  A
O1927      C1928   1.331       .  A
C1928      C1929   1.393       .  A
C1929      H1935   1.082       .  S
O1930      C1931   1.332       .  A
C1931      C1932   1.391       .  A
C1932      H1936   1.083       .  S
C1937      C1942   1.381       .  A
C1937      C1938   1.402       .  A
C1937      O1943   1.318       .  A
C1938      C1939   1.401       .  A
C1938      H1949   1.082       .  S
C1939      C1948   1.360       .  A
C1939      C1940   1.381       .  A
C1940      C1941   1.402       .  A
C1940      O1946   1.318       .  A
C1941      C1942   1.402       .  A
C1941      H1950   1.082       .  S
C1942      C1945   1.360       .  A
O1943      C1944   1.330       .  A
C1944      C1945   1.391       .  A
C1945      H1951   1.083       .  S
O1946      C1947   1.330       .  A
C1947      C1948   1.391       .  A
C1948      H1952   1.083       .  S
C1953      C1958   1.381       .  A
C1953      C1954   1.402       .  A
C1953      O1959   1.318       .  A
C1954      C1955   1.402       .  A
C1954      H1965   1.082       .  S
C1955      C1964   1.360       .  A
C1955      C1956   1.381       .  A
C1956      C1957   1.400       .  A
C1956      O1962   1.316       .  A
C1957      C1958   1.400       .  A
C1957      H1966   1.082       .  S
C1958      C1961   1.358       .  A
O1959      C1960   1.329       .  A
C1960      C1961   1.388       .  A
C1961      H1967   1.083       .  S
O1962      C1963   1.329       .  A
C1963      C1964   1.390       .  A
C1964      H1968   1.082       .  S
C1969      C1974   1.381       .  A
C1969      C1970   1.403       .  A
C1969      O1975   1.316       .  A
C1970      C1971   1.401       .  A
C1970      H1981   1.082       .  S
C1971      C1980   1.364       .  A
C1971      C1972   1.381       .  A
C1972      C1973   1.402       .  A
C1972      O1978   1.315       .  A
C1973      C1974   1.399       .  A
C1973      H1982   1.082       .  S
C1974      C1977   1.362       .  A
O1975      C1976   1.331       .  A
C1976      C1977   1.389       .  A
C1977      H1983   1.082       .  S
O1978      C1979   1.329       .  A
C1979      C1980   1.391       .  A
C1980      H1984   1.082       .  S
C1985      C1990   1.381       .  A
C1985      O1991   1.318       .  A
C1986      C1987   1.402       .  A
C1986      H1997   1.082       .  S
C1987      C1996   1.360       .  A
C1987      C1988   1.382       .  A
C1988      O1994   1.318       .  A
C1989      C1990   1.401       .  A
C1989      H1998   1.082       .  S
C1990      C1993   1.359       .  A
O1991      C1992   1.330       .  A
C1992      C1993   1.389       .  A
C1993      H1999   1.083       .  S
O1994      C1995   1.328       .  A
C1995      C1996   1.389       .  A
C1996      H2000   1.083       .  S
C2001      C2006   1.381       .  A
C2001      O2007   1.318       .  A
C2002      C2003   1.401       .  A
C2002      H2013   1.082       .  S
C2003      C2012   1.357       .  A
C2003      C2004   1.381       .  A
C2004      O2010   1.317       .  A
C2005      C2006   1.399       .  A
C2005      H2014   1.082       .  S
C2006      C2009   1.356       .  A
O2007      C2008   1.330       .  A
C2008      C2009   1.389       .  A
C2009      H2015   1.083       .  S
O2010      C2011   1.328       .  A
C2011      C2012   1.391       .  A
C2012      H2016   1.083       .  S
C2017      C2022   1.381       .  A
C2017      C2018   1.403       .  A
C2017      O2023   1.317       .  A
C2019      C2028   1.362       .  A
C2019      C2020   1.381       .  A
C2020      O2026   1.316       .  A
C2021      C2022   1.400   1_545  A
C2021      H2030   1.082       .  S
C2022      C2025   1.361       .  A
O2023      C2024   1.330       .  A
C2024      C2025   1.390       .  A
C2025      H2031   1.082       .  S
O2026      C2027   1.329       .  A
C2027      C2028   1.391       .  A
C2028      H2032   1.083       .  S
C2033      C2038   1.381       .  A
C2033      C2034   1.401       .  A
C2033      O2039   1.317       .  A
C2034      C2035   1.401       .  A
C2034      H2045   1.082       .  S
C2035      C2044   1.359       .  A
C2035      C2036   1.381       .  A
C2036      C2037   1.404       .  A
C2036      O2042   1.319       .  A
C2037      C2038   1.403       .  A
C2037      H2046   1.082       .  S
C2038      C2041   1.362       .  A
O2039      C2040   1.330       .  A
C2040      C2041   1.391       .  A
C2041      H2047   1.082       .  S
O2042      C2043   1.331       .  A
C2043      C2044   1.390       .  A
C2044      H2048   1.083       .  S
C2049      C2054   1.381       .  A
C2049      C2050   1.405       .  A
C2049      O2055   1.320       .  A
C2050      C2051   1.404       .  A
C2050      H2061   1.082       .  S
C2051      C2060   1.364       .  A
C2051      C2052   1.381       .  A
C2052      C2053   1.400       .  A
C2052      O2058   1.316       .  A
C2053      C2054   1.400       .  A
C2053      H2062   1.082       .  S
C2054      C2057   1.358       .  A
O2055      C2056   1.332       .  A
C2056      C2057   1.389       .  A
C2057      H2063   1.083       .  S
O2058      C2059   1.329       .  A
C2059      C2060   1.392       .  A
C2060      H2064   1.082       .  S
C2065      C2070   1.381       .  A
C2065      C2066   1.401       .  A
C2065      O2071   1.317       .  A
C2066      C2067   1.400       .  A
C2066      H2077   1.082       .  S
C2067      C2076   1.358       .  A
C2067      C2068   1.381       .  A
C2068      C2069   1.404       .  A
C2068      O2074   1.320       .  A
C2069      C2070   1.403       .  A
C2069      H2078   1.082       .  S
C2070      C2073   1.362       .  A
O2071      C2072   1.329       .  A
C2072      C2073   1.391       .  A
C2073      H2079   1.082       .  S
O2074      C2075   1.331       .  A
C2075      C2076   1.389       .  A
C2076      H2080   1.083       .  S
C2081      C2086   1.381       .  A
C2081      C2082   1.404       .  A
C2081      O2087   1.319       .  A
C2082      H2093   1.082       .  S
C2083      C2092   1.363       .  A
C2083      C2084   1.381       .  A
C2084      C2085   1.401       .  A
C2084      O2090   1.317       .  A
C2085      H2094   1.082       .  S
C2086      C2089   1.359       .  A
O2087      C2088   1.330       .  A
C2088      C2089   1.390       .  A
O2090      C2091   1.330       .  A
C2091      C2092   1.391       .  A
C2092      H2096   1.082       .  S
C2097      C2102   1.381       .  A
C2097      O2103   1.316       .  A
C2098      C2099   1.401       .  A
C2098      H2109   1.082       .  S
C2099      C2108   1.361       .  A
C2099      C2100   1.381       .  A
C2100      O2106   1.319       .  A
C2101      C2102   1.403       .  A
C2101      H2110   1.082       .  S
C2102      C2105   1.364       .  A
O2103      C2104   1.330       .  A
C2104      C2105   1.391       .  A
C2105      H2111   1.082       .  S
O2106      C2107   1.331       .  A
C2107      C2108   1.390       .  A
C2108      H2112   1.083       .  S
C2113      C2118   1.381       .  A
C2113      C2114   1.402       .  A
C2113      O2119   1.317       .  A
C2114      C2115   1.401       .  A
C2114      H2125   1.082       .  S
C2115      C2124   1.360       .  A
C2115      C2116   1.381       .  A
C2116      C2117   1.403       .  A
C2116      O2122   1.317       .  A
C2117      C2118   1.402       .  A
C2117      H2126   1.082       .  S
C2118      C2121   1.361       .  A
O2119      C2120   1.330       .  A
C2120      C2121   1.391       .  A
C2121      H2127   1.083       .  S
O2122      C2123   1.330       .  A
C2123      C2124   1.390       .  A
C2124      H2128   1.083       .  S
C2129      C2134   1.380       .  A
C2129      C2130   1.405       .  A
C2129      O2135   1.319       .  A
C2130      C2131   1.403       .  A
C2130      H2141   1.082       .  S
C2131      C2140   1.364       .  A
C2131      C2132   1.380       .  A
C2132      C2133   1.403       .  A
C2132      O2138   1.317       .  A
C2133      C2134   1.402       .  A
C2133      H2142   1.082       .  S
C2134      C2137   1.362       .  A
O2135      C2136   1.332       .  A
C2136      C2137   1.391       .  A
C2137      H2143   1.082       .  S
O2138      C2139   1.331       .  A
C2139      C2140   1.391       .  A
C2140      H2144   1.082       .  S
C2145      C2146   1.403   1_556  A
C2145      O2151   1.319       .  A
C2146      H2157   1.082       .  S
C2147      C2156   1.362       .  A
C2148      C2149   1.407       .  A
C2148      O2154   1.322       .  A
C2149      H2158   1.082       .  S
C2150      C2153   1.366       .  A
O2151      C2152   1.331   1_655  A
C2153      H2159   1.082       .  S
C2155      C2156   1.391   1_455  A
C2156      H2160   1.082       .  S
C2161      C2162   1.402       .  A
C2161      O2167   1.316       .  A
C2162      C2163   1.401   1_554  A
C2162      H2173   1.082       .  S
C2163      C2172   1.361       .  A
C2164      C2165   1.401       .  A
C2164      O2170   1.316       .  A
C2165      C2166   1.400   1_556  A
C2165      H2174   1.082       .  S
C2166      C2169   1.360       .  A
O2167      C2168   1.330   1_655  A
C2169      H2175   1.083       .  S
O2170      C2171   1.329       .  A
C2172      H2176   1.082       .  S
C2177      C2182   1.381       .  A
C2177      C2178   1.402       .  A
C2177      O2183   1.320       .  A
C2178      C2179   1.402       .  A
C2178      H2189   1.082       .  S
C2179      C2188   1.358       .  A
C2179      C2180   1.382       .  A
C2180      C2181   1.398       .  A
C2180      O2186   1.316       .  A
C2181      C2182   1.399       .  A
C2181      H2190   1.082       .  S
C2182      C2185   1.353       .  A
O2183      C2184   1.329       .  A
C2184      C2185   1.390       .  A
C2185      H2191   1.083       .  S
O2186      C2187   1.328       .  A
C2187      C2188   1.391       .  A
C2188      H2192   1.083       .  S
C2193      C2198   1.381       .  A
C2193      C2194   1.403       .  A
C2193      O2199   1.319       .  A
C2194      C2195   1.403       .  A
C2194      H2205   1.082       .  S
C2195      C2204   1.362       .  A
C2195      C2196   1.380       .  A
C2196      C2197   1.405       .  A
C2196      O2202   1.320       .  A
C2197      C2198   1.404       .  A
C2197      H2206   1.082       .  S
C2198      C2201   1.363       .  A
O2199      C2200   1.330       .  A
C2200      C2201   1.390       .  A
C2201      H2207   1.082       .  S
O2202      C2203   1.332       .  A
C2203      C2204   1.391       .  A
C2204      H2208   1.082       .  S
C2209      C2214   1.381       .  A
C2209      O2215   1.320       .  A
C2210      C2211   1.403       .  A
C2210      H2221   1.082       .  S
C2211      C2220   1.358       .  A
C2211      C2212   1.382       .  A
C2212      O2218   1.317       .  A
C2213      C2214   1.399       .  A
C2213      H2222   1.082       .  S
C2214      C2217   1.353       .  A
O2215      C2216   1.330       .  A
C2216      C2217   1.390       .  A
C2217      H2223   1.083       .  S
O2218      C2219   1.328       .  A
C2219      C2220   1.391       .  A
C2220      H2224   1.083       .  S
C2225      C2230   1.381       .  A
C2225      O2231   1.316       .  A
C2226      C2227   1.399       .  A
C2226      H2237   1.082       .  S
C2227      C2236   1.357       .  A
C2227      C2228   1.381       .  A
C2228      O2234   1.321       .  A
C2229      C2230   1.405       .  A
C2229      H2238   1.082       .  S
C2230      C2233   1.365       .  A
O2231      C2232   1.328       .  A
C2232      C2233   1.391       .  A
C2233      H2239   1.082       .  S
O2234      C2235   1.331       .  A
C2235      C2236   1.388       .  A
C2236      H2240   1.083       .  S
