geometry optimzed in LAMMPS
_audit_creation_date              2020-12-01 
_audit_creation_method            'lammps2cif' 
_symmetry_space_group_name_H-M    'P1' 
_symmetry_Int_Tables_number       1 
_symmetry_cell_setting            triclinic 
loop_ 
_symmetry_equiv_pos_as_xyz 
  x,y,z 
_cell_length_a                    46.453866 
_cell_length_b                    46.549230430247505 
_cell_length_c                    74.07770969956431 
_cell_angle_alpha                 90.01367596034247 
_cell_angle_beta                  89.98415763688956 
_cell_angle_gamma                 120.0118847615095 
loop_ 
_atom_site_label 
_atom_site_type_symbol 
_atom_site_fract_x 
_atom_site_fract_y 
_atom_site_fract_z 
_atom_site_charge 
Zn1        Zn  0.14109942  0.35250354  0.64211419     1.49700
Zn2        Zn  0.16916458  0.33560879  0.60727682     1.49400
Zn3        Zn  0.21239586  0.35530603  0.64327005     1.49100
Zn4        Zn  0.14381821  0.28463602  0.63956346     1.49500
O5          O  0.16671396  0.33204235  0.63338645    -1.82000
O6          O  0.12572642  0.37085108  0.62147544    -0.72700
O7          O  0.21501652  0.36392432  0.59889394    -0.72500
O8          O  0.21818830  0.39253134  0.66024245    -0.72000
O9          O  0.14503821  0.35715349  0.59766165    -0.72700
O10         O  0.16983900  0.39138424  0.65839130    -0.72300
O11         O  0.24720196  0.37751822  0.62311940    -0.72900
O12         O  0.17444198  0.27431870  0.65427488    -0.72300
O13         O  0.15147959  0.29220363  0.59485419    -0.73000
O14         O  0.22170494  0.32234549  0.65659611    -0.72400
O15         O  0.13072169  0.25557880  0.61711034    -0.72900
O16         O  0.10142611  0.27163062  0.65358618    -0.72800
O17         O  0.10027335  0.31871101  0.65587752    -0.72600
C18         C  0.12973761  0.37072889  0.60445347     0.79200
C19         C  0.24352106  0.37900619  0.60613026     0.79700
C20         C  0.19955367  0.40451438  0.66430380     0.78700
C21         C  0.20446880  0.29121157  0.65972790     0.79000
C22         C  0.13619508  0.26240993  0.60035922     0.80200
C23         C  0.08747538  0.28772757  0.65901113     0.79200
C24         C  0.33384709  0.16377911  0.71703075     0.47500
H25         H  0.33389841  0.16287908  0.70208504    -0.01500
C26         C  0.33392711  0.16607271  0.75230411     0.47600
H27         H  0.33436374  0.16699234  0.76724137    -0.01500
C28         C  0.31424437  0.12942067  0.72586244    -0.15200
C29         C  0.36882928  0.17996884  0.72559614    -0.14900
C30         C  0.31765455  0.18309449  0.72469437    -0.15300
C31         C  0.31441467  0.13056811  0.74441205    -0.15300
C32         C  0.36884467  0.18108103  0.74406075    -0.14800
C33         C  0.31873135  0.18543363  0.74330012    -0.15200
Zn34       Zn  0.12341816  0.30896130  0.84548135     1.49700
Zn35       Zn  0.16737364  0.33249663  0.80885584     1.49400
Zn36       Zn  0.19030201  0.37645841  0.84570352     1.49100
Zn37       Zn  0.19280573  0.31069443  0.84397170     1.49500
O38         O  0.16831124  0.33201710  0.83564162    -1.82000
O39         O  0.09000045  0.29362125  0.82555329    -0.72700
O40         O  0.19138708  0.38118596  0.80018345    -0.72500
O41         O  0.16141781  0.38531949  0.86217165    -0.72000
O42         O  0.11840082  0.30830126  0.79986435    -0.72700
O43         O  0.11444364  0.33727934  0.86261058    -0.72300
O44         O  0.20591123  0.40902140  0.82601915    -0.72900
O45         O  0.23156897  0.33966344  0.85987403    -0.72300
O46         O  0.19270305  0.30996147  0.79841816    -0.73000
O47         O  0.22995352  0.38618650  0.86045264    -0.72400
O48         O  0.21077410  0.29748884  0.82333358    -0.72900
O49         O  0.16394981  0.27066929  0.85855227    -0.72800
O50         O  0.11572143  0.26943280  0.85990312    -0.72600
C51         C  0.09064640  0.29440843  0.80837703     0.79200
C52         C  0.20543923  0.40862010  0.80889415     0.79700
C53         C  0.13204722  0.36706024  0.86803790     0.78700
C54         C  0.24327454  0.36934822  0.86524311     0.79000
C55         C  0.20928829  0.29832333  0.80623344     0.80200
C56         C  0.13421482  0.25759544  0.86419506     0.79200
Zn57       Zn  0.35578470  0.21406438  0.32836221     1.49700
Zn58       Zn  0.35694201  0.14578694  0.32375936     1.49400
Zn59       Zn  0.33445276  0.16241242  0.36084289     1.49100
Zn60       Zn  0.28727403  0.14508412  0.32767279     1.49500
O61         O  0.33380524  0.16695001  0.33489830    -1.82000
O62         O  0.39833794  0.22739392  0.31441540    -0.72700
O63         O  0.37766943  0.12976857  0.34270508    -0.72500
O64         O  0.35124459  0.20572988  0.37291799    -0.72000
O65         O  0.39609260  0.17937466  0.30894942    -0.72700
O66         O  0.36761134  0.24269737  0.35089435    -0.72300
O67         O  0.36449665  0.14583769  0.36804437    -0.72900
O68         O  0.25574710  0.12493901  0.34871968    -0.72300
O69         O  0.32455807  0.10640377  0.30853190    -0.73000
O70         O  0.28958064  0.13245620  0.37146417    -0.72400
O71         O  0.27743855  0.10738324  0.31112059    -0.72900
O72         O  0.27637863  0.17688465  0.31530911    -0.72800
O73         O  0.32486065  0.22390578  0.31353574    -0.72600
C74         C  0.41068169  0.21088117  0.30741183     0.79200
C75         C  0.37953057  0.13327300  0.35980658     0.79700
C76         C  0.36386083  0.23555082  0.36766315     0.78700
C77         C  0.26037045  0.12077518  0.36521491     0.79000
C78         C  0.29368177  0.09413272  0.30501749     0.80200
C79         C  0.29371275  0.20703662  0.31038075     0.79200
C80         C  0.16828157  0.33346901  0.21757665     0.47500
H81         H  0.16915350  0.33259823  0.20262115    -0.01500
C82         C  0.16598274  0.33459578  0.25277713     0.47600
H83         H  0.16459633  0.33464281  0.26773668    -0.01500
C84         C  0.13265714  0.31633212  0.22545268    -0.15200
C85         C  0.18513704  0.31616217  0.22676736    -0.14900
C86         C  0.18624124  0.36890338  0.22553645    -0.15300
C87         C  0.13157415  0.31693279  0.24395979    -0.15300
C88         C  0.18408061  0.31687849  0.24531003    -0.14800
C89         C  0.18334212  0.36938963  0.24412269    -0.15200
Zn90       Zn  0.35911666  0.14635169  0.14019128     1.49700
Zn91       Zn  0.33749646  0.17374699  0.10704354     1.49400
Zn92       Zn  0.28984006  0.14612698  0.14129799     1.49100
Zn93       Zn  0.35911969  0.21559870  0.14305846     1.49500
O94         O  0.33635048  0.17043806  0.13314551    -1.82000
O95         O  0.37596817  0.13247652  0.11844302    -0.72700
O96         O  0.29238842  0.15102545  0.09662405    -0.72500
O97         O  0.28054210  0.10517153  0.15572253    -0.72000
O98         O  0.36245353  0.15420423  0.09570096    -0.72700
O99         O  0.32829443  0.10524366  0.15458692    -0.72300
O100        O  0.25824865  0.13138758  0.11996370    -0.72900
O101        O  0.32714872  0.22311887  0.15807743    -0.72300
O102        O  0.35803353  0.22012611  0.09861041    -0.73000
O103        O  0.27910903  0.17575910  0.15650459    -0.72400
O104        O  0.37548698  0.25080835  0.12334781    -0.72900
O105        O  0.39893261  0.22321279  0.15791704    -0.72800
O106        O  0.39941612  0.17586270  0.15524850    -0.72600
C107        C  0.37603008  0.13826187  0.10162718     0.79200
C108        C  0.26316332  0.13555912  0.10300456     0.79700
C109        C  0.29807033  0.09195437  0.15969056     0.78700
C110        C  0.29626647  0.20576742  0.16178789     0.79000
C111        C  0.37210424  0.24826041  0.10625960     0.80200
C112        C  0.41222369  0.20548651  0.16112756     0.79200
Zn113      Zn  0.45677452  0.48435030  0.99311782     1.49700
Zn114      Zn  0.02430489  0.04668290  0.99198732     1.49400
Zn115      Zn  0.02591642  0.48090183  0.99480629     1.49100
Zn116      Zn  0.00336378  0.99790081  0.95920431     1.49500
O117        O  0.00144009  0.00009010  0.98492674    -1.82000
O118        O  0.44735836  0.01225338  0.00680224    -0.72700
O119        O  0.06186839  0.05625517  0.00851201    -0.72500
O120        O  0.49410131  0.44718101  0.01249928    -0.72000
O121        O  0.49579426  0.05907376  0.00538070    -0.72700
O122        O  0.44643554  0.44717823  0.01051454    -0.72300
O123        O  0.06240807  0.00890918  0.00992585    -0.72900
O124        O  0.02280311  0.47284227  0.95105214    -0.72300
O125        O  0.04269971  0.07759414  0.97070582    -0.73000
O126        O  0.04334357  0.46215465  0.97539717    -0.72400
O127        O  0.02896732  0.04205707  0.94814329    -0.72900
O128        O  0.45942743  0.47909162  0.94915420    -0.72800
O129        O  0.42461670  0.46720990  0.97201460    -0.72600
C130        C  0.46601881  0.04262105  0.01101169     0.79200
C131        C  0.07410569  0.03907743  0.01451789     0.79700
C132        C  0.46395702  0.43576598  0.01720478     0.78700
C133        C  0.03871069  0.46039196  0.95837076     0.79000
C134        C  0.04274441  0.07159141  0.95395442     0.80200
C135        C  0.43013279  0.46744968  0.95514746     0.79200
Zn136      Zn  0.99837767  0.49985921  0.50888097     1.49700
Zn137      Zn  0.01818666  0.47171005  0.47568883     1.49400
Zn138      Zn  0.45180939  0.48063945  0.47540768     1.49100
Zn139      Zn  0.02323314  0.04198411  0.47424701     1.49500
O140        O  0.99802236  0.49819787  0.48295253    -1.82000
O141        O  0.02032266  0.47711286  0.51991935    -0.72700
O142        O  0.48261190  0.43186719  0.46301229    -0.72500
O143        O  0.41993968  0.46969997  0.49663034    -0.72000
O144        O  0.03552111  0.45714645  0.49698530    -0.72700
O145        O  0.45466437  0.48429232  0.51982255    -0.72300
O146        O  0.43848062  0.43853395  0.46167327    -0.72900
O147        O  0.49612567  0.05359678  0.45764004    -0.72300
O148        O  0.05789703  0.99746042  0.46047878    -0.73000
O149        O  0.44551851  0.00950397  0.45789462    -0.72400
O150        O  0.06102465  0.04646161  0.45911393    -0.72900
O151        O  0.04217932  0.07848335  0.49330188    -0.72800
O152        O  0.02693585  0.04783928  0.51810359    -0.72600
C153        C  0.03442686  0.46177886  0.51386535     0.79200
C154        C  0.45300365  0.42224764  0.45782957     0.79700
C155        C  0.42548078  0.47263803  0.51358481     0.78700
C156        C  0.46636447  0.03817619  0.45184435     0.79000
C157        C  0.07155754  0.02701995  0.45447712     0.80200
C158        C  0.04192328  0.07592811  0.51043266     0.79200
C159        C  0.14767551  0.05370673  0.04311339     0.14800
C160        C  0.15369847  0.08193423  0.05288755     0.01700
C161        C  0.13401687  0.09645555  0.04996009     0.16700
C162        C  0.10834180  0.08281296  0.03731025     0.26100
C163        C  0.10198800  0.05426946  0.02745024    -0.40200
C164        C  0.12195346  0.03984682  0.03052556     0.33100
C165        C  0.18126605  0.09669897  0.06579510     0.01800
F166        F  0.13990310  0.12401099  0.05926679    -0.12500
F167        F  0.11691461  0.01255405  0.02124168    -0.13100
C168        C  0.21389231  0.11478555  0.05941675     0.16700
C169        C  0.24044014  0.12771501  0.07147997     0.26100
C170        C  0.23472586  0.12248878  0.09027290    -0.40200
C171        C  0.20164384  0.10474292  0.09657124     0.33100
C172        C  0.17515054  0.09199557  0.08437605     0.14800
F173        F  0.21998136  0.11987708  0.04142291    -0.12500
F174        F  0.19477590  0.09943214  0.11447249    -0.13100
F175        F  0.27166440  0.14523648  0.06460800    -0.15300
F176        F  0.14349455  0.07448528  0.09064918    -0.13900
F177        F  0.16671978  0.03952553  0.04585205    -0.13900
F178        F  0.08936797  0.09720231  0.03503417    -0.15300
C179        C  0.40625311  0.37693498  0.05319567     0.14800
C180        C  0.42343377  0.36067934  0.05844363     0.01700
C181        C  0.45364313  0.36883062  0.05012078     0.16700
C182        C  0.46657238  0.39284370  0.03657662     0.26100
C183        C  0.44948992  0.40935846  0.03113872    -0.40200
C184        C  0.41918045  0.40119590  0.03971497     0.33100
C185        C  0.40873875  0.33324716  0.07153666     0.01800
F186        F  0.47016910  0.35274668  0.05477987    -0.12500
F187        F  0.40215317  0.41687701  0.03528540    -0.13100
C188        C  0.38124194  0.30299511  0.06642360     0.16700
C189        C  0.36910564  0.27562743  0.07787036     0.26100
C190        C  0.38415542  0.27811356  0.09478633    -0.40200
C191        C  0.41110644  0.30889396  0.10014068     0.33100
C192        C  0.42345885  0.33622628  0.08850032     0.14800
F193        F  0.36689425  0.29966341  0.05000105    -0.12500
F194        F  0.42635243  0.31220581  0.11626258    -0.13100
F195        F  0.34262173  0.24662104  0.07230420    -0.15300
F196        F  0.45010249  0.36547193  0.09361871    -0.13900
F197        F  0.37696394  0.36930546  0.06118692    -0.13900
F198        F  0.49560822  0.39944121  0.02864860    -0.15300
C199        C  0.41267661  0.08915982  0.08057784     0.14800
C200        C  0.41812491  0.10104694  0.06280484     0.01700
C201        C  0.41140230  0.12613527  0.05798186     0.16700
C202        C  0.39841860  0.13872307  0.07068909     0.26100
C203        C  0.39179984  0.12622595  0.08852384    -0.40200
C204        C  0.39962619  0.10162830  0.09338748     0.33100
C205        C  0.43032984  0.08687392  0.04913919     0.01800
F206        F  0.41727403  0.13829171  0.04088262    -0.12500
F207        F  0.39389928  0.08896421  0.11036219    -0.13100
C208        C  0.40776550  0.06086150  0.03808943     0.16700
C209        C  0.41925552  0.04681409  0.02533717     0.26100
C210        C  0.45359078  0.05883279  0.02343127    -0.40200
C211        C  0.47612516  0.08552010  0.03435119     0.33100
C212        C  0.46449867  0.09932918  0.04712128     0.14800
F213        F  0.37458576  0.04890126  0.03982298    -0.12500
F214        F  0.50939464  0.09749618  0.03320203    -0.13100
F215        F  0.39682140  0.02160499  0.01484597    -0.15300
F216        F  0.48656027  0.12462839  0.05769981    -0.13900
F217        F  0.41950760  0.06505831  0.08540661    -0.13900
F218        F  0.39245670  0.16322421  0.06545079    -0.15300
C219        C  0.48284593  0.26069083  0.19276287     0.14800
C220        C  0.00604259  0.24930136  0.18877556     0.01700
C221        C  0.99710173  0.22285428  0.17672338     0.16700
C222        C  0.46671986  0.20896733  0.16831921     0.26100
C223        C  0.44383146  0.21995521  0.17142051    -0.40200
C224        C  0.45215960  0.24582384  0.18386035     0.33100
C225        C  0.03945064  0.26616745  0.19728030     0.01800
F226        F  0.01892861  0.21244087  0.17268103    -0.12500
F227        F  0.43047708  0.25657256  0.18755786    -0.13100
C228        C  0.05059915  0.24805241  0.20741218     0.16700
C229        C  0.08180800  0.26425410  0.21574434     0.26100
C230        C  0.10216040  0.29884612  0.21430926    -0.40200
C231        C  0.09106507  0.31690173  0.20419198     0.33100
C232        C  0.06021137  0.30068481  0.19553761     0.14800
F233        F  0.03071264  0.21487942  0.20984716    -0.12500
F234        F  0.10871946  0.35047902  0.20393771    -0.13100
F235        F  0.09168619  0.24637599  0.22583187    -0.15300
F236        F  0.05033443  0.31882905  0.18569239    -0.13900
F237        F  0.48983828  0.28510403  0.20496108    -0.13900
F238        F  0.45993596  0.18444974  0.15622513    -0.15300
C239        C  0.23575173  0.01532327  0.18614032     0.14800
C240        C  0.25570442  0.49589934  0.18895848     0.01700
C241        C  0.28595202  0.01259021  0.18179687     0.16700
C242        C  0.30065369  0.04317056  0.17284177     0.26100
C243        C  0.28294403  0.06020039  0.17014325    -0.40200
C244        C  0.25035781  0.04597067  0.17717315     0.33100
C245        C  0.23987603  0.46237118  0.19724462     0.01800
F246        F  0.30342993  0.99653164  0.18361431    -0.12500
F247        F  0.23241870  0.06156489  0.17540075    -0.13100
C248        C  0.21049155  0.43636850  0.18990326     0.16700
C249        C  0.19433607  0.40513861  0.19821521     0.26100
C250        C  0.20673358  0.39955046  0.21437848    -0.40200
C251        C  0.23802295  0.42477836  0.22063079     0.33100
C252        C  0.25405132  0.45605778  0.21236984     0.14800
F253        F  0.19727887  0.44136345  0.17469363    -0.12500
F254        F  0.25279637  0.41939858  0.23502638    -0.13100
F255        F  0.16618684  0.38084868  0.19059361    -0.15300
F256        F  0.28283389  0.48054689  0.21952539    -0.13900
F257        F  0.21001047  0.50276160  0.19799531    -0.13900
F258        F  0.33209980  0.05561803  0.16650738    -0.15300
C259        C  0.24877774  0.29260871  0.21154616     0.14800
C260        C  0.23094873  0.26796553  0.19856945     0.01700
C261        C  0.19829576  0.26020838  0.19429707     0.16700
C262        C  0.18355567  0.27625240  0.20320801     0.26100
C263        C  0.20133554  0.30054753  0.21639404    -0.40200
C264        C  0.23449805  0.30935381  0.21994075     0.33100
C265        C  0.24718718  0.25160076  0.18909255     0.01800
F266        F  0.18088931  0.23749915  0.18129672    -0.12500
F267        F  0.25352123  0.33487117  0.23119751    -0.13100
C268        C  0.23302255  0.21689558  0.18924099     0.16700
C269        C  0.24903696  0.20189180  0.18060034     0.26100
C270        C  0.27975575  0.22136076  0.17176749    -0.40200
C271        C  0.29386220  0.25613626  0.17174654     0.33100
C272        C  0.27765494  0.27097099  0.18017754     0.14800
F273        F  0.20399417  0.19752902  0.19807883    -0.12500
F274        F  0.32295938  0.27597114  0.16306975    -0.13100
F275        F  0.23465676  0.16833509  0.18113221    -0.15300
F276        F  0.29149874  0.30445108  0.17929820    -0.13900
F277        F  0.28013030  0.30037953  0.21620204    -0.13900
F278        F  0.15179641  0.26775346  0.19909528    -0.15300
C279        C  0.27473072  0.01606875  0.27914759     0.14800
C280        C  0.24055338  0.49815019  0.27797731     0.01700
C281        C  0.22301335  0.01544732  0.28460945     0.16700
C282        C  0.24060773  0.04679818  0.29256060     0.26100
C283        C  0.27558142  0.06285342  0.29443900    -0.40200
C284        C  0.29244627  0.04729491  0.28725021     0.33100
C285        C  0.22215475  0.46391000  0.27064021     0.01800
F286        F  0.19023403  0.50024586  0.28087906    -0.12500
F287        F  0.32603932  0.06184055  0.28833183    -0.13100
C288        C  0.22541321  0.43841497  0.27879574     0.16700
C289        C  0.21088387  0.40689262  0.27096099     0.26100
C290        C  0.19300264  0.40031280  0.25471346    -0.40200
C291        C  0.18622591  0.42463698  0.24792123     0.33100
C292        C  0.20151844  0.45643678  0.25544328     0.14800
F293        F  0.24312553  0.44420167  0.29428214    -0.12500
F294        F  0.16551783  0.41792165  0.23362956    -0.13100
F295        F  0.21521710  0.38334105  0.27912199    -0.15300
F296        F  0.19731803  0.48026552  0.24736633    -0.13900
F297        F  0.29165446  0.00166742  0.27238649    -0.13900
F298        F  0.22301380  0.06072282  0.29897741    -0.15300
C299        C  0.04620810  0.29747099  0.26061539     0.14800
C300        C  0.03812250  0.27128583  0.27275328     0.01700
C301        C  0.06174104  0.26138381  0.27609849     0.16700
C302        C  0.09249298  0.27684656  0.26713090     0.26100
C303        C  0.10010819  0.30236313  0.25461741    -0.40200
C304        C  0.07702143  0.31310080  0.25181674     0.33100
C305        C  0.00506419  0.25438673  0.28183616     0.01800
F306        F  0.05505387  0.23681513  0.28812505    -0.12500
F307        F  0.08443745  0.33900120  0.24065913    -0.13100
C308        C  0.48502315  0.22743881  0.27829200     0.16700
C309        C  0.45347330  0.21133109  0.28626970     0.26100
C310        C  0.44331819  0.22864150  0.29788193    -0.40200
C311        C  0.46558310  0.26266966  0.30108060     0.33100
C312        C  0.99490427  0.27246282  0.29270887     0.14800
F313        F  0.49379100  0.21013667  0.26698305    -0.12500
F314        F  0.45735326  0.28030924  0.31245408    -0.13100
F315        F  0.43283167  0.17875114  0.28248869    -0.15300
F316        F  0.01570964  0.30535304  0.29561125    -0.13900
F317        F  0.02390803  0.30745081  0.25697198    -0.13900
F318        F  0.11448816  0.26631409  0.27032892    -0.15300
C319        C  0.22928267  0.23136413  0.29893412     0.14800
C320        C  0.24493728  0.25424228  0.28489341     0.01700
C321        C  0.27670788  0.26143186  0.27912837     0.16700
C322        C  0.29262909  0.24601554  0.28732605     0.26100
C323        C  0.27690531  0.22297713  0.30133988    -0.40200
C324        C  0.24501878  0.21571979  0.30702421     0.33100
C325        C  0.22788391  0.27010683  0.27598566     0.01800
F326        F  0.29199058  0.28288722  0.26528513    -0.12500
F327        F  0.22947604  0.19420784  0.32081507    -0.13100
C328        C  0.24186119  0.30472333  0.27642947     0.16700
C329        C  0.22693873  0.31985831  0.26697706     0.26100
C330        C  0.19763014  0.30063134  0.25707982    -0.40200
C331        C  0.18332023  0.26594577  0.25688878     0.33100
C332        C  0.19829094  0.25078646  0.26630894     0.14800
F333        F  0.27045815  0.32392981  0.28566219    -0.12500
F334        F  0.15551063  0.24689214  0.24702624    -0.13100
F335        F  0.24292135  0.35340517  0.26605769    -0.15300
F336        F  0.18471191  0.21734843  0.26536928    -0.13900
F337        F  0.19898533  0.22467703  0.30504148    -0.13900
F338        F  0.32297519  0.25287096  0.28121875    -0.15300
C339        C  0.13628813  0.02855613  0.42231125     0.14800
C340        C  0.15102622  0.06103036  0.41558520     0.01700
C341        C  0.14042342  0.08252867  0.42201261     0.16700
C342        C  0.11510325  0.07171443  0.43482846     0.26100
C343        C  0.09968811  0.03891989  0.44151183    -0.40200
C344        C  0.11080870  0.01750742  0.43513955     0.33100
C345        C  0.17790474  0.07305821  0.40204987     0.01800
F346        F  0.15496457  0.11430494  0.41597921    -0.12500
F347        F  0.09688037  0.98573008  0.44108993    -0.13100
C348        C  0.17345549  0.08319980  0.38494679     0.16700
C349        C  0.19992421  0.09786948  0.37275182     0.26100
C350        C  0.23147768  0.10275904  0.37750262    -0.40200
C351        C  0.23543168  0.09149943  0.39452366     0.33100
C352        C  0.20884229  0.07674124  0.40663605     0.14800
F353        F  0.14350960  0.07940662  0.38019949    -0.12500
F354        F  0.26514286  0.09513247  0.39963447    -0.13100
F355        F  0.19485497  0.10841369  0.35660287    -0.15300
F356        F  0.21366679  0.06725888  0.42316831    -0.13900
F357        F  0.14616466  0.00734915  0.41618286    -0.13900
F358        F  0.10575729  0.09354746  0.44057623    -0.15300
C359        C  0.38004616  0.27868157  0.41316046     0.14800
C360        C  0.39539202  0.31216654  0.40809267     0.01700
C361        C  0.39975886  0.32043148  0.38964727     0.16700
C362        C  0.38908519  0.29567213  0.37648273     0.26100
C363        C  0.37432663  0.26204393  0.38150430    -0.40200
C364        C  0.36987218  0.25390432  0.40007747     0.33100
C365        C  0.40769588  0.33859607  0.42197713     0.01800
F366        F  0.41523381  0.35266604  0.38434385    -0.12500
F367        F  0.35573661  0.22194075  0.40575953    -0.13100
C368        C  0.43006317  0.34046522  0.43535374     0.16700
C369        C  0.44382768  0.36698569  0.44750524     0.26100
C370        C  0.43565800  0.39225659  0.44642381    -0.40200
C371        C  0.41228644  0.38965450  0.43346290     0.33100
C372        C  0.39831191  0.36297049  0.42144372     0.14800
F373        F  0.43965136  0.31731349  0.43621932    -0.12500
F374        F  0.40410953  0.41375073  0.43179344    -0.13100
F375        F  0.46541954  0.36808603  0.46021472    -0.15300
F376        F  0.37589497  0.36118009  0.40907605    -0.13900
F377        F  0.37462387  0.26985844  0.43084460    -0.13900
F378        F  0.39364256  0.30484247  0.35884865    -0.15300
C379        C  0.42740107  0.12651289  0.39910503     0.14800
C380        C  0.42778234  0.09734732  0.39492314     0.01700
C381        C  0.41580051  0.08207002  0.37807916     0.16700
C382        C  0.40177645  0.09478618  0.36597516     0.26100
C383        C  0.39915570  0.12264790  0.37076144    -0.40200
C384        C  0.41325786  0.13907721  0.38715334     0.33100
C385        C  0.43815486  0.08164991  0.40882267     0.01800
F386        F  0.41686959  0.05432853  0.37361943    -0.12500
F387        F  0.41269299  0.16701074  0.39183285    -0.13100
C388        C  0.41454464  0.05145821  0.41659038     0.16700
C389        C  0.42344450  0.03751486  0.43070682     0.26100
C390        C  0.45634217  0.05356213  0.43733881    -0.40200
C391        C  0.47997661  0.08397020  0.42937913     0.33100
C392        C  0.47085954  0.09783937  0.41532522     0.14800
F393        F  0.38251420  0.03591322  0.41080651    -0.12500
F394        F  0.51207736  0.10040995  0.43504185    -0.13100
F395        F  0.39965444  0.00839986  0.43789003    -0.15300
F396        F  0.49403590  0.12713043  0.40799609    -0.13900
F397        F  0.43913435  0.14185935  0.41522983    -0.13900
F398        F  0.38912225  0.07878447  0.35011404    -0.15300
C399        C  0.06752561  0.11799060  0.90958308     0.14800
C400        C  0.08582027  0.15085271  0.91546075     0.01700
C401        C  0.09123975  0.15796618  0.93393397     0.16700
C402        C  0.07760286  0.13226743  0.94656197     0.26100
C403        C  0.05848410  0.09904994  0.94077890    -0.40200
C404        C  0.05399540  0.09223873  0.92206791     0.33100
C405        C  0.09817038  0.17771827  0.90220617     0.01800
F406        F  0.10909097  0.18986574  0.93971230    -0.12500
F407        F  0.03595944  0.06074159  0.91570714    -0.13100
C408        C  0.07582380  0.18496983  0.89347689     0.16700
C409        C  0.08731515  0.21046846  0.88079965     0.26100
C410        C  0.12147321  0.22897920  0.87660825    -0.40200
C411        C  0.14368344  0.22101259  0.88525833     0.33100
C412        C  0.13203400  0.19563184  0.89800883     0.14800
F413        F  0.04288300  0.16755995  0.89746137    -0.12500
F414        F  0.17682243  0.23821268  0.88178159    -0.13100
F415        F  0.06495191  0.21697426  0.87272284    -0.15300
F416        F  0.15377189  0.18842546  0.90625070    -0.13900
F417        F  0.06260075  0.11091166  0.89167512    -0.13900
F418        F  0.08300194  0.14001772  0.96437317    -0.15300
C419        C  0.34378640  0.41993074  0.93471423     0.14800
C420        C  0.35113298  0.42624722  0.91629607     0.01700
C421        C  0.38391422  0.44688812  0.91068659     0.16700
C422        C  0.40943718  0.46074568  0.92335317     0.26100
C423        C  0.40251086  0.45401901  0.94196143    -0.40200
C424        C  0.36927014  0.43379845  0.94751962     0.33100
C425        C  0.32445074  0.41197397  0.90286087     0.01800
F426        F  0.39117826  0.45351751  0.89287906    -0.12500
F427        F  0.36139489  0.42696338  0.96524576    -0.13100
C428        C  0.31062698  0.43069640  0.89651756     0.16700
C429        C  0.28475108  0.41714409  0.88401999     0.26100
C430        C  0.27225951  0.38442371  0.87761295    -0.40200
C431        C  0.28709962  0.36609835  0.88372564     0.33100
C432        C  0.31301156  0.37987378  0.89626927     0.14800
F433        F  0.32204292  0.46207957  0.90261885    -0.12500
F434        F  0.27647252  0.33477562  0.87777519    -0.13100
F435        F  0.27180559  0.43610467  0.87842874    -0.15300
F436        F  0.32696704  0.36191216  0.90203838    -0.13900
F437        F  0.31189010  0.40031204  0.94023965    -0.13900
F438        F  0.43571058  0.98958230  0.91877155    -0.15300
C439        C  0.12136579  0.42737249  0.89802597     0.14800
C440        C  0.09460510  0.40560175  0.90892063    -0.02300
C441        C  0.07979654  0.37131377  0.90625772     0.16700
C442        C  0.09167980  0.35875400  0.89286557     0.26100
C443        C  0.11862454  0.38042998  0.88181242    -0.40200
C444        C  0.13336999  0.41496568  0.88458955     0.33100
C445        C  0.08016607  0.41865539  0.92200549     0.01800
F446        F  0.05361647  0.35000744  0.91660765    -0.12500
F447        F  0.15897814  0.43683876  0.87409828    -0.13100
C448        C  0.05279667  0.42158879  0.91686363     0.16700
C449        C  0.03885293  0.43422298  0.92889063     0.26100
C450        C  0.05215442  0.44433687  0.94641199    -0.40200
C451        C  0.07938982  0.44079486  0.95164401     0.33100
C452        C  0.09336217  0.42812027  0.93945335     0.14800
F453        F  0.03983103  0.41257506  0.90000963    -0.12500
F454        F  0.09318882  0.45057660  0.96826764    -0.13100
F455        F  0.50836792  0.42798815  0.92828170    -0.15300
F456        F  0.11994178  0.42537731  0.94457263    -0.13900
F457        F  0.13537463  0.46068927  0.90017124    -0.13900
F458        F  0.07708209  0.32534357  0.89097209    -0.15300
C459        C  0.99719663  0.24576916  0.79926086     0.14800
C460        C  0.49617278  0.25035514  0.78074912     0.01700
C461        C  0.02549442  0.26454678  0.77060172     0.16700
C462        C  0.05637415  0.28005552  0.77952810     0.26100
C463        C  0.05807157  0.27843966  0.79850495    -0.40200
C464        C  0.02782596  0.26107424  0.80820218     0.33100
C465        C  0.46295118  0.23226106  0.77187067     0.01800
F466        F  0.02480857  0.26606411  0.75231443    -0.12500
F467        F  0.02753526  0.25865271  0.82647724    -0.13100
C468        C  0.44479122  0.24839092  0.76818313     0.16700
C469        C  0.41355842  0.23128161  0.75980016     0.26100
C470        C  0.39996119  0.19782064  0.75491949    -0.40200
C471        C  0.41766751  0.18145362  0.75897202     0.33100
C472        C  0.44888834  0.19850659  0.76735291     0.14800
F473        F  0.45774432  0.28099689  0.77225347    -0.12500
F474        F  0.40484452  0.14899166  0.75469716    -0.13100
F475        F  0.39693411  0.24762060  0.75598260    -0.15300
F476        F  0.46529108  0.18196277  0.77123776    -0.13900
F477        F  0.47245895  0.26196992  0.80650049    -0.13900
F478        F  0.08450291  0.29664618  0.76953297    -0.15300
C479        C  0.23832298  0.47444524  0.77185389     0.14800
C480        C  0.25085965  0.00414486  0.78113638     0.01700
C481        C  0.25139572  0.50175106  0.80096855     0.16700
C482        C  0.23659857  0.47101030  0.80954659     0.26100
C483        C  0.22180021  0.44120092  0.79939717    -0.40200
C484        C  0.22311410  0.44337275  0.78038933     0.33100
C485        C  0.26781846  0.03722837  0.77239127     0.01800
F486        F  0.24907695  0.02889746  0.80915078    -0.12500
F487        F  0.20986638  0.41559514  0.77003574    -0.13100
C488        C  0.25243332  0.05666530  0.77186898     0.16700
C489        C  0.26833607  0.08790705  0.76364823     0.26100
C490        C  0.29973363  0.10009484  0.75564878    -0.40200
C491        C  0.31526580  0.08083402  0.75633534     0.33100
C492        C  0.29956627  0.04975827  0.76475663     0.14800
F493        F  0.22137516  0.04476807  0.77869409    -0.12500
F494        F  0.34527273  0.09177130  0.74836749    -0.13100
F495        F  0.25186855  0.10499412  0.76228091    -0.15300
F496        F  0.31535282  0.03188565  0.76547735    -0.13900
F497        F  0.25163655  0.97726973  0.75367026    -0.13900
F498        F  0.23707224  0.47079048  0.82787910    -0.15300
C499        C  0.23310061  0.25551079  0.77011376     0.14800
C500        C  0.26117558  0.25666310  0.77804008     0.01700
C501        C  0.27313483  0.27321724  0.79449087     0.16700
C502        C  0.25678428  0.28757180  0.80324476     0.26100
C503        C  0.22790964  0.28562722  0.79572715    -0.40200
C504        C  0.21656750  0.26993750  0.77887817     0.33100
C505        C  0.27732148  0.23940251  0.76969713     0.01800
F506        F  0.30059106  0.27516462  0.80218411    -0.12500
F507        F  0.18867615  0.26717579  0.77132237    -0.13100
C508        C  0.29946353  0.25374841  0.75523756     0.16700
C509        C  0.31493381  0.23740985  0.74758843     0.26100
C510        C  0.30717901  0.20553962  0.75365182    -0.40200
C511        C  0.28669565  0.19240440  0.76894422     0.33100
C512        C  0.27187117  0.20915913  0.77685222     0.14800
F513        F  0.30627475  0.28370553  0.74862811    -0.12500
F514        F  0.28030677  0.16304354  0.77608908    -0.13100
F515        F  0.33764256  0.25286360  0.73428582    -0.15300
F516        F  0.25162766  0.19555421  0.79135347    -0.13900
F517        F  0.22110004  0.23944438  0.75419771    -0.13900
F518        F  0.26931331  0.30341389  0.81917138    -0.15300
C519        C  0.00102562  0.22067026  0.67357628     0.14800
C520        C  0.49407947  0.24236409  0.68715004     0.01700
C521        C  0.01671478  0.27031528  0.69109446     0.16700
C522        C  0.04742028  0.28654777  0.68220478     0.26100
C523        C  0.05540225  0.27001851  0.66892946    -0.40200
C524        C  0.03199750  0.23673502  0.66486411     0.33100
C525        C  0.46151973  0.22608602  0.69667472     0.01800
F526        F  0.01023848  0.28674399  0.70417656    -0.12500
F527        F  0.03849276  0.22013863  0.65189167    -0.13100
C528        C  0.44682529  0.19271361  0.70215718     0.16700
C529        C  0.41627045  0.17744412  0.71119199     0.26100
C530        C  0.39990431  0.19523360  0.71490210    -0.40200
C531        C  0.41483489  0.22870309  0.70987771     0.33100
C532        C  0.44512592  0.24390353  0.70059695     0.14800
F533        F  0.46258467  0.17519265  0.69927787    -0.12500
F534        F  0.40060940  0.24698225  0.71452204    -0.13100
F535        F  0.40329830  0.14565648  0.71690334    -0.15300
F536        F  0.45836153  0.27601814  0.69537428    -0.13900
F537        F  0.47328482  0.19960414  0.66458003    -0.13900
F538        F  0.06956981  0.31836668  0.68679798    -0.15300
C539        C  0.29748871  0.05734247  0.69491843     0.14800
C540        C  0.26381713  0.03453782  0.69862346     0.01700
C541        C  0.24619734  0.04459696  0.71001033     0.16700
C542        C  0.26208040  0.07625411  0.71780050     0.26100
C543        C  0.29634477  0.09791880  0.71527869    -0.40200
C544        C  0.31359327  0.08860323  0.70324754     0.33100
C545        C  0.24712227  0.00061133  0.69046054     0.01800
F546        F  0.21373056  0.02352076  0.71398186    -0.12500
F547        F  0.34619712  0.10952857  0.69972813    -0.13100
C548        C  0.25469010  0.47521624  0.69621610     0.16700
C549        C  0.24003459  0.44455068  0.68723879     0.26100
C550        C  0.21316298  0.43540715  0.67533493    -0.40200
C551        C  0.20063984  0.45726742  0.67315851     0.33100
C552        C  0.21565362  0.48809706  0.68190462     0.14800
F553        F  0.28016682  0.48298271  0.70782633    -0.12500
F554        F  0.17484244  0.44964201  0.66180565    -0.13100
F555        F  0.25215097  0.42380035  0.69024137    -0.15300
F556        F  0.20264816  0.00756391  0.67901303    -0.13900
F557        F  0.31480557  0.04944094  0.68310983    -0.13900
F558        F  0.24376052  0.08594845  0.72758833    -0.15300
C559        C  0.25015010  0.20027498  0.70865826     0.14800
C560        C  0.26668041  0.22415591  0.69510911     0.01700
C561        C  0.29893994  0.23173361  0.68998966     0.16700
C562        C  0.31490779  0.21691084  0.69883377     0.26100
C563        C  0.29909441  0.19462916  0.71312726    -0.40200
C564        C  0.26600568  0.18531164  0.71736721     0.33100
C565        C  0.25041320  0.24128706  0.68644823     0.01800
F566        F  0.31511799  0.25375681  0.67650311    -0.12500
F567        F  0.24929484  0.16223754  0.73032921    -0.13100
C568        C  0.26589347  0.27610360  0.68660555     0.16700
C569        C  0.25091223  0.29231388  0.67819244     0.26100
C570        C  0.21982876  0.27404284  0.66949654    -0.40200
C571        C  0.20406462  0.23902787  0.66975941     0.33100
C572        C  0.21924860  0.22295075  0.67806367     0.14800
F573        F  0.29542807  0.29450063  0.69518171    -0.12500
F574        F  0.17419919  0.22008060  0.66161096    -0.13100
F575        F  0.26689793  0.32596417  0.67871631    -0.15300
F576        F  0.20379197  0.18931519  0.67749069    -0.13900
F577        F  0.21908279  0.19237072  0.71399430    -0.13900
F578        F  0.34634044  0.22552403  0.69395591    -0.15300
C579        C  0.08467959  0.12882811  0.55115680     0.14800
C580        C  0.08710674  0.15910385  0.54648546     0.01700
C581        C  0.07684099  0.16302079  0.52924763     0.16700
C582        C  0.06302900  0.13635358  0.51708154     0.26100
C583        C  0.05934666  0.10552085  0.52209491    -0.40200
C584        C  0.07101347  0.10233487  0.53912363     0.33100
C585        C  0.09942375  0.18594351  0.56001012     0.01800
F586        F  0.07900326  0.19220797  0.52450234    -0.12500
F587        F  0.06918732  0.07343080  0.54421229    -0.13100
C588        C  0.12939917  0.21561089  0.55723560     0.16700
C589        C  0.14170151  0.24025776  0.57051864     0.26100
C590        C  0.12417961  0.23552685  0.58682246    -0.40200
C591        C  0.09429089  0.20559039  0.58960497     0.33100
C592        C  0.08196993  0.18108076  0.57626714     0.14800
F593        F  0.14713315  0.22032414  0.54185217    -0.12500
F594        F  0.07643340  0.20044198  0.60497953    -0.13100
F595        F  0.17114920  0.26844762  0.56759723    -0.15300
F596        F  0.05271007  0.15263702  0.57910438    -0.13900
F597        F  0.09544417  0.12488102  0.56751553    -0.13900
F598        F  0.55438147  0.13887910  0.50204007    -0.15300
C599        C  0.29294337  0.42674246  0.56530430     0.14800
C600        C  0.32291364  0.42694515  0.56786073     0.01700
C601        C  0.32812158  0.41423149  0.58399440     0.16700
C602        C  0.30294553  0.39999963  0.59703773     0.26100
C603        C  0.27223043  0.39824660  0.59404665    -0.40200
C604        C  0.26786312  0.41262245  0.57826652     0.33100
C605        C  0.34838892  0.43973917  0.55349115     0.01800
F606        F  0.35705046  0.41429365  0.58673073    -0.12500
F607        F  0.23907711  0.41276112  0.57528680    -0.13100
C608        C  0.37976636  0.46735218  0.55677399     0.16700
C609        C  0.40435673  0.47865112  0.54350605     0.26100
C610        C  0.39802143  0.46247086  0.52666064    -0.40200
C611        C  0.36613474  0.43551203  0.52313276     0.33100
C612        C  0.34151438  0.42418398  0.53649195     0.14800
F613        F  0.38654760  0.48344563  0.57285828    -0.12500
F614        F  0.35925443  0.41916453  0.50712601    -0.13100
F615        F  0.43156702  0.00788548  0.54602783    -0.15300
F616        F  0.31130215  0.39727509  0.53308239    -0.13900
F617        F  0.28790399  0.44005409  0.55014794    -0.13900
F618        F  0.30793003  0.38631736  0.61204075    -0.15300
C619        C  0.11896132  0.41059010  0.56238438     0.14800
C620        C  0.09133363  0.41368103  0.56683936     0.01700
C621        C  0.07737708  0.40451784  0.58419522     0.16700
C622        C  0.09018251  0.39121953  0.59671134     0.26100
C623        C  0.11710465  0.38683699  0.59199260    -0.40200
C624        C  0.13174638  0.39734336  0.57478019     0.33100
C625        C  0.07697804  0.42605212  0.55318466     0.01800
F626        F  0.05069952  0.40749773  0.58880763    -0.12500
F627        F  0.15876198  0.39512651  0.56990946    -0.13100
C628        C  0.06448812  0.40880510  0.53684832     0.16700
C629        C  0.05122421  0.42064472  0.52379446     0.26100
C630        C  0.05002299  0.44979946  0.52697443    -0.40200
C631        C  0.06307875  0.46728222  0.54324834     0.33100
C632        C  0.07642510  0.45549542  0.55621211     0.14800
F633        F  0.06454705  0.38009018  0.53372316    -0.12500
F634        F  0.06357074  0.49625263  0.54647832    -0.13100
F635        F  0.03861533  0.40303980  0.50834977    -0.15300
F636        F  0.08942539  0.47319292  0.57159465    -0.13900
F637        F  0.13373597  0.42064916  0.54598144    -0.13900
F638        F  0.07551118  0.38160688  0.61315238    -0.15300
Zn639      Zn  0.14210163  0.85209707  0.64266756     1.49700
Zn640      Zn  0.16917029  0.83396857  0.60781773     1.49400
Zn641      Zn  0.21236960  0.85345913  0.64367875     1.49100
Zn642      Zn  0.14310077  0.78367701  0.64002230     1.49500
O643        O  0.16679424  0.83086329  0.63388248    -1.82000
O644        O  0.12541242  0.86876962  0.62201998    -0.72700
O645        O  0.21465609  0.86401500  0.59942327    -0.72500
O646        O  0.21948087  0.89161793  0.66024515    -0.72000
O647        O  0.14341454  0.85352002  0.59824294    -0.72700
O648        O  0.17207697  0.89210339  0.65785959    -0.72300
O649        O  0.24679396  0.87564091  0.62357696    -0.72900
O650        O  0.17331746  0.77240507  0.65415387    -0.72300
O651        O  0.15262137  0.79061807  0.59544203    -0.73000
O652        O  0.22110633  0.81983480  0.65672158    -0.72400
O653        O  0.12872659  0.75448707  0.61767605    -0.72900
O654        O  0.10187902  0.77191414  0.65468406    -0.72800
O655        O  0.10212058  0.81961276  0.65730524    -0.72600
C656        C  0.12831922  0.86731418  0.60499165     0.79200
C657        C  0.24310285  0.87855604  0.60674251     0.79700
C658        C  0.20179809  0.90492577  0.66370435     0.78700
C659        C  0.20337083  0.78863205  0.65957810     0.79000
C660        C  0.13558850  0.76095114  0.60099291     0.80200
C661        C  0.08886106  0.78862303  0.66050168     0.79200
C662        C  0.33194668  0.66143869  0.71790602     0.47500
H663        H  0.33156880  0.65936627  0.70300788    -0.01500
C664        C  0.33296074  0.66571166  0.75314177     0.47600
H665        H  0.33372636  0.66745371  0.76805819    -0.01500
C666        C  0.31311368  0.62763903  0.72733561    -0.15200
C667        C  0.36728703  0.67878014  0.72622266    -0.14900
C668        C  0.31515269  0.68047281  0.72522840    -0.15300
C669        C  0.31381436  0.62979740  0.74581452    -0.15300
C670        C  0.36768028  0.68098669  0.74468944    -0.14800
C671        C  0.31712818  0.68416047  0.74379116    -0.15200
Zn672      Zn  0.12277003  0.80811342  0.84450452     1.49700
Zn673      Zn  0.16647820  0.83265057  0.80763850     1.49400
Zn674      Zn  0.18913502  0.87624755  0.84451707     1.49100
Zn675      Zn  0.19192680  0.81033309  0.84254968     1.49500
O676        O  0.16744904  0.83176189  0.83442776    -1.82000
O677        O  0.08942452  0.79440400  0.82473526    -0.72700
O678        O  0.18934442  0.88143320  0.79914659    -0.72500
O679        O  0.16006971  0.88420846  0.86137694    -0.72000
O680        O  0.11728067  0.80803167  0.79885369    -0.72700
O681        O  0.11408550  0.83534691  0.86261820    -0.72300
O682        O  0.20417837  0.90942596  0.82496408    -0.72900
O683        O  0.22904919  0.83857713  0.85951347    -0.72300
O684        O  0.19332705  0.81175123  0.79691935    -0.73000
O685        O  0.22879790  0.88585384  0.85924758    -0.72400
O686        O  0.21231641  0.80020826  0.82179111    -0.72900
O687        O  0.16264147  0.76820822  0.85564921    -0.72800
O688        O  0.11454723  0.76702354  0.85753171    -0.72600
C689        C  0.08972014  0.79493642  0.80756383     0.79200
C690        C  0.20307891  0.90889425  0.80783039     0.79700
C691        C  0.13128971  0.86531404  0.86783898     0.78700
C692        C  0.24118672  0.86847400  0.86462186     0.79000
C693        C  0.21108289  0.80139177  0.80469090     0.80200
C694        C  0.13269938  0.75444380  0.86104741     0.79200
Zn695      Zn  0.35376170  0.71375263  0.32701937     1.49700
Zn696      Zn  0.35511878  0.64518058  0.32401138     1.49400
Zn697      Zn  0.33335411  0.66432498  0.36029736     1.49100
Zn698      Zn  0.28581437  0.64447728  0.32674059     1.49500
O699        O  0.33214348  0.66702896  0.33425930    -1.82000
O700        O  0.39638505  0.72644930  0.31356181    -0.72700
O701        O  0.37441551  0.62897374  0.34358623    -0.72500
O702        O  0.34877648  0.70805746  0.37160159    -0.72000
O703        O  0.39475830  0.67830390  0.30955841    -0.72700
O704        O  0.36504692  0.74377660  0.34891812    -0.72300
O705        O  0.36382245  0.64875475  0.36837457    -0.72900
O706        O  0.25484734  0.62429834  0.34787281    -0.72300
O707        O  0.32353209  0.60568550  0.30867822    -0.73000
O708        O  0.28883549  0.63379090  0.37088897    -0.72400
O709        O  0.27623146  0.60642046  0.31033626    -0.72900
O710        O  0.27442386  0.67586337  0.31415059    -0.72800
O711        O  0.32295870  0.72261784  0.31156854    -0.72600
C712        C  0.40909038  0.70966257  0.30741237     0.79200
C713        C  0.37720038  0.63410588  0.36056177     0.79700
C714        C  0.36090471  0.73748365  0.36576755     0.78700
C715        C  0.25964875  0.62093307  0.36445765     0.79000
C716        C  0.29282709  0.59320008  0.30471229     0.80200
C717        C  0.29173304  0.70571259  0.30869298     0.79200
C718        C  0.16761251  0.83558868  0.21763571     0.47500
H719        H  0.16797747  0.83445372  0.20267724    -0.01500
C720        C  0.16651825  0.83714663  0.25287271     0.47600
H721        H  0.16562851  0.83740074  0.26784714    -0.01500
C722        C  0.13222048  0.81880329  0.22590130    -0.15200
C723        C  0.18464007  0.81824037  0.22666650    -0.14900
C724        C  0.18591755  0.87118122  0.22549788    -0.15300
C725        C  0.13194985  0.81997075  0.24440823    -0.15300
C726        C  0.18400369  0.81904694  0.24520314    -0.14800
C727        C  0.18367620  0.87171199  0.24412589    -0.15200
Zn728      Zn  0.35706107  0.64504392  0.14044272     1.49700
Zn729      Zn  0.33118595  0.67005297  0.10815024     1.49400
Zn730      Zn  0.28731758  0.64381632  0.14391670     1.49100
Zn731      Zn  0.35598735  0.71380429  0.14338947     1.49500
O732        O  0.33286127  0.66813826  0.13423849    -1.82000
O733        O  0.37249693  0.63103625  0.11814543    -0.72700
O734        O  0.28519590  0.64934068  0.09932652    -0.72500
O735        O  0.27984332  0.60295116  0.15785681    -0.72000
O736        O  0.35350692  0.64863875  0.09589615    -0.72700
O737        O  0.32794031  0.60390274  0.15529823    -0.72300
O738        O  0.25348678  0.62927222  0.12366807    -0.72900
O739        O  0.32491252  0.72182785  0.15896104    -0.72300
O740        O  0.35287449  0.71590549  0.09896116    -0.73000
O741        O  0.27774841  0.67359392  0.15987188    -0.72400
O742        O  0.37149972  0.74795882  0.12314228    -0.72900
O743        O  0.39686069  0.72243629  0.15742899    -0.72800
O744        O  0.39843088  0.67567380  0.15451150    -0.72600
C745        C  0.36935713  0.63465145  0.10134405     0.79200
C746        C  0.25677886  0.63434197  0.10669911     0.79700
C747        C  0.29806954  0.59017047  0.16105950     0.78700
C748        C  0.29476957  0.70422363  0.16407008     0.79000
C749        C  0.36775405  0.74445329  0.10610033     0.80200
C750        C  0.41103420  0.70540109  0.16021050     0.79200
Zn751      Zn  0.45533834  0.98009380  0.99243477     1.49700
Zn752      Zn  0.02643861  0.55005478  0.99119502     1.49400
Zn753      Zn  0.02362130  0.97735534  0.99486627     1.49100
Zn754      Zn  0.00317450  0.49941863  0.95929214     1.49500
O755        O  0.00301221  0.50303080  0.98498461    -1.82000
O756        O  0.44908884  0.51720448  0.00672933    -0.72700
O757        O  0.06291865  0.55971583  0.00840701    -0.72500
O758        O  0.49292008  0.94189193  0.01062402    -0.72000
O759        O  0.49640820  0.56501265  0.00390827    -0.72700
O760        O  0.44553265  0.94250718  0.00936710    -0.72300
O761        O  0.06329694  0.51241169  0.01070432    -0.72900
O762        O  0.02384814  0.97199614  0.95108541    -0.72300
O763        O  0.04608298  0.57964060  0.96949133    -0.73000
O764        O  0.03945875  0.95669844  0.97571893    -0.72400
O765        O  0.02915397  0.54273836  0.94743167    -0.72900
O766        O  0.45737474  0.97693114  0.94813308    -0.72800
O767        O  0.42301205  0.96320730  0.97145457    -0.72600
C768        C  0.46692732  0.54809295  0.00996649     0.79200
C769        C  0.07448492  0.54254210  0.01522449     0.79700
C770        C  0.46295607  0.93066179  0.01564877     0.78700
C771        C  0.03719333  0.95708614  0.95858270     0.79000
C772        C  0.04491440  0.57253991  0.95282133     0.80200
C773        C  0.42820013  0.96439395  0.95450471     0.79200
Zn774      Zn  0.00067145  0.00125247  0.51040925     1.49700
Zn775      Zn  0.01938407  0.97134296  0.47730223     1.49400
Zn776      Zn  0.44912157  0.97833685  0.47568175     1.49100
Zn777      Zn  0.02425190  0.54362364  0.47387958     1.49500
O778        O  0.99860937  0.99727371  0.48451950    -1.82000
O779        O  0.02225106  0.97830281  0.52162777    -0.72700
O780        O  0.48083658  0.93140595  0.46239101    -0.72500
O781        O  0.41680859  0.96823570  0.49670820    -0.72000
O782        O  0.03619673  0.95712235  0.49872423    -0.72700
O783        O  0.45126654  0.98271513  0.52002759    -0.72300
O784        O  0.43560505  0.93610958  0.46189808    -0.72900
O785        O  0.49741754  0.55518169  0.45630765    -0.72300
O786        O  0.05641401  0.49785381  0.45877790    -0.73000
O787        O  0.44662929  0.51132432  0.45804313    -0.72400
O788        O  0.06199405  0.54798776  0.45876336    -0.72900
O789        O  0.04279897  0.57801335  0.49392484    -0.72800
O790        O  0.02330706  0.54569200  0.51799757    -0.72600
C791        C  0.03546040  0.96211066  0.51557442     0.79200
C792        C  0.45101774  0.92099723  0.45736599     0.79700
C793        C  0.42227940  0.97163192  0.51367449     0.78700
C794        C  0.46708435  0.53961314  0.45142975     0.79000
C795        C  0.07121947  0.52785845  0.45342403     0.80200
C796        C  0.04005207  0.57423459  0.51098902     0.79200
C797        C  0.14104395  0.55467600  0.04875058     0.14800
C798        C  0.14738719  0.58412764  0.05728641     0.01700
C799        C  0.13040032  0.60041112  0.05181072     0.16700
C800        C  0.10702301  0.58722888  0.03793954     0.26100
C801        C  0.10048575  0.55753561  0.02925083    -0.40200
C802        C  0.11787409  0.54147716  0.03481730     0.33100
C803        C  0.17360711  0.59892637  0.07099084     0.01800
F804        F  0.13634565  0.62897208  0.06000653    -0.12500
F805        F  0.11287097  0.51320606  0.02667329    -0.13100
C806        C  0.20331802  0.62795604  0.06687057     0.16700
C807        C  0.23007729  0.63991666  0.07874564     0.26100
C808        C  0.22738492  0.62304836  0.09503634    -0.40200
C809        C  0.19695207  0.59481322  0.09951901     0.33100
C810        C  0.17027226  0.58269675  0.08747286     0.14800
F811        F  0.20686778  0.64385241  0.05093804    -0.12500
F812        F  0.19352569  0.57802490  0.11509082    -0.13100
F813        F  0.25874412  0.66783028  0.07416659    -0.15300
F814        F  0.14143412  0.55467798  0.09164434    -0.13900
F815        F  0.15800618  0.53915228  0.05363934    -0.13900
F816        F  0.09046507  0.60330544  0.03331530    -0.15300
C817        C  0.40371795  0.86915807  0.05024846     0.14800
C818        C  0.42185852  0.85440504  0.05635723     0.01700
C819        C  0.45336780  0.86454170  0.04909365     0.16700
C820        C  0.46661384  0.88904126  0.03578493     0.26100
C821        C  0.44847263  0.90393234  0.02944723    -0.40200
C822        C  0.41684790  0.89373935  0.03696368     0.33100
C823        C  0.40721434  0.82718997  0.06963643     0.01800
F824        F  0.47100939  0.85007034  0.05459829    -0.12500
F825        F  0.39859953  0.90767965  0.03167410    -0.13100
C826        C  0.37878992  0.79722528  0.06503438     0.16700
C827        C  0.36562302  0.77067520  0.07708425     0.26100
C828        C  0.38066489  0.77362457  0.09404899    -0.40200
C829        C  0.40876071  0.80400144  0.09880467     0.33100
C830        C  0.42204181  0.83054281  0.08661552     0.14800
F831        F  0.36434077  0.79336779  0.04859629    -0.12500
F832        F  0.42410983  0.80763781  0.11492546    -0.13100
F833        F  0.33808120  0.74202873  0.07208688    -0.15300
F834        F  0.44950333  0.85947457  0.09130688    -0.13900
F835        F  0.37329388  0.85986359  0.05728743    -0.13900
F836        F  0.49715511  0.89789630  0.02908756    -0.15300
C837        C  0.40956612  0.58967497  0.07928055     0.14800
C838        C  0.41377335  0.60157119  0.06152489     0.01700
C839        C  0.40382755  0.62442489  0.05688806     0.16700
C840        C  0.38951209  0.63520673  0.06982566     0.26100
C841        C  0.38476455  0.62312522  0.08772444    -0.40200
C842        C  0.39513484  0.60030711  0.09231351     0.33100
C843        C  0.42769812  0.58942755  0.04764245     0.01800
F844        F  0.40819171  0.63643478  0.03978999    -0.12500
F845        F  0.39072837  0.58771867  0.10926864    -0.13100
C846        C  0.40653760  0.56553241  0.03515309     0.16700
C847        C  0.41939294  0.55278052  0.02243493     0.26100
C848        C  0.45371303  0.56413356  0.02191118    -0.40200
C849        C  0.47500649  0.58901332  0.03408453     0.33100
C850        C  0.46199688  0.60140884  0.04693200     0.14800
F851        F  0.37330927  0.55402650  0.03559497    -0.12500
F852        F  0.50818002  0.60013412  0.03417463    -0.13100
F853        F  0.39828933  0.52924547  0.01069154    -0.15300
F854        F  0.48276436  0.62477582  0.05885389    -0.13900
F855        F  0.41890970  0.56728117  0.08387465    -0.13900
F856        F  0.38077307  0.65786056  0.06479280    -0.15300
C857        C  0.48209483  0.76115495  0.19144013     0.14800
C858        C  0.00510915  0.75130172  0.18955641     0.01700
C859        C  0.99705225  0.72518315  0.17740712     0.16700
C860        C  0.46658355  0.71050985  0.16634393     0.26100
C861        C  0.44324340  0.72071964  0.16993824    -0.40200
C862        C  0.45142952  0.74632359  0.18253461     0.33100
C863        C  0.03820284  0.76843986  0.19836905     0.01800
F864        F  0.01950273  0.71547363  0.17357229    -0.12500
F865        F  0.42953595  0.75669422  0.18648248    -0.13100
C866        C  0.04897265  0.75057759  0.20898649     0.16700
C867        C  0.08024710  0.76683602  0.21724460     0.26100
C868        C  0.10111772  0.80126734  0.21519918    -0.40200
C869        C  0.09012239  0.81914995  0.20483113     0.33100
C870        C  0.05914977  0.80284213  0.19627943     0.14800
F871        F  0.02871766  0.71758057  0.21184606    -0.12500
F872        F  0.10807704  0.85268155  0.20414363    -0.13100
F873        F  0.08978107  0.74916351  0.22775368    -0.15300
F874        F  0.04941859  0.82074654  0.18610932    -0.13900
F875        F  0.48872912  0.78498464  0.20396439    -0.13900
F876        F  0.46009840  0.68660561  0.15388982    -0.15300
C877        C  0.23947699  0.51451693  0.18923872     0.14800
C878        C  0.25325498  0.99814517  0.18832142     0.01700
C879        C  0.28659990  0.50901902  0.18029968     0.16700
C880        C  0.30063061  0.53978768  0.17153348     0.26100
C881        C  0.28407099  0.55831268  0.17132569    -0.40200
C882        C  0.25348128  0.54540565  0.18058113     0.33100
C883        C  0.23728413  0.96488780  0.19705240     0.01800
F884        F  0.30273781  0.49146847  0.17984272    -0.12500
F885        F  0.23698623  0.56259516  0.18132218    -0.13100
C886        C  0.20816905  0.93833463  0.18977014     0.16700
C887        C  0.19268484  0.90712926  0.19815034     0.26100
C888        C  0.20553123  0.90199317  0.21428457    -0.40200
C889        C  0.23648521  0.92784659  0.22050295     0.33100
C890        C  0.25164679  0.95914315  0.21230729     0.14800
F891        F  0.19473388  0.94262047  0.17444146    -0.12500
F892        F  0.25192112  0.92300630  0.23476315    -0.13100
F893        F  0.16496907  0.88230490  0.19047985    -0.15300
F894        F  0.27990510  0.98415368  0.21962618    -0.13900
F895        F  0.20449379  0.00250433  0.19284752    -0.13900
F896        F  0.33001547  0.55084153  0.16280725    -0.15300
C897        C  0.24828534  0.79422117  0.21238443     0.14800
C898        C  0.23033363  0.76846166  0.19998135     0.01700
C899        C  0.19760810  0.76038253  0.19555253     0.16700
C900        C  0.18294034  0.77715704  0.20379011     0.26100
C901        C  0.20092446  0.80261906  0.21635445    -0.40200
C902        C  0.23416925  0.81180156  0.21995281     0.33100
C903        C  0.24663648  0.75150196  0.19111292     0.01800
F904        F  0.18001310  0.73656936  0.18308683    -0.12500
F905        F  0.25327810  0.83821831  0.23066820    -0.13100
C906        C  0.23220891  0.71675540  0.19153630     0.16700
C907        C  0.24800530  0.70126875  0.18312585     0.26100
C908        C  0.27881990  0.72027584  0.17426049    -0.40200
C909        C  0.29337127  0.75511900  0.17419318     0.33100
C910        C  0.27735927  0.77040054  0.18234686     0.14800
F911        F  0.20303810  0.69778978  0.20033580    -0.12500
F912        F  0.32272993  0.77467465  0.16568741    -0.13100
F913        F  0.23313801  0.66767817  0.18377823    -0.15300
F914        F  0.29161276  0.80389819  0.18122618    -0.13900
F915        F  0.27955528  0.80220093  0.21736036    -0.13900
F916        F  0.15101544  0.76811647  0.19973867    -0.15300
C917        C  0.27516892  0.51395019  0.28043970     0.14800
C918        C  0.23986171  0.99958528  0.27816862     0.01700
C919        C  0.22369487  0.51492516  0.28294328     0.16700
C920        C  0.24089128  0.54642290  0.29080887     0.26100
C921        C  0.27542743  0.56173825  0.29417234    -0.40200
C922        C  0.29241502  0.54526101  0.28852770     0.33100
C923        C  0.22127212  0.96539784  0.27099105     0.01800
F924        F  0.18930948  0.99995102  0.28393645    -0.12500
F925        F  0.32565350  0.55896704  0.29114307    -0.13100
C926        C  0.22579971  0.94040603  0.27872315     0.16700
C927        C  0.21160894  0.90907274  0.27078389     0.26100
C928        C  0.19296163  0.90230945  0.25482109    -0.40200
C929        C  0.18486263  0.92598895  0.24852138     0.33100
C930        C  0.19959621  0.95759046  0.25625360     0.14800
F931        F  0.24461223  0.94661243  0.29381229    -0.12500
F932        F  0.16350574  0.91887946  0.23450467    -0.13100
F933        F  0.21721508  0.88597440  0.27846447    -0.15300
F934        F  0.19391851  0.98095298  0.24881457    -0.13900
F935        F  0.29234658  0.49888932  0.27508895    -0.13900
F936        F  0.22328229  0.56132527  0.29560052    -0.15300
C937        C  0.04952958  0.80715830  0.26189205     0.14800
C938        C  0.04035460  0.78102161  0.27420934     0.01700
C939        C  0.06287275  0.76981957  0.27784065     0.16700
C940        C  0.09309938  0.78312815  0.26851325     0.26100
C941        C  0.10129125  0.80784855  0.25544047    -0.40200
C942        C  0.07990560  0.82069006  0.25274281     0.33100
C943        C  0.00659969  0.76402260  0.28237600     0.01800
F944        F  0.05532982  0.74564194  0.29027401    -0.12500
F945        F  0.08845919  0.84638453  0.24122912    -0.13100
C946        C  0.48360896  0.72502847  0.27906257     0.16700
C947        C  0.45191604  0.70930470  0.28680531     0.26100
C948        C  0.44187527  0.72697152  0.29818692    -0.40200
C949        C  0.46434289  0.76087807  0.30148695     0.33100
C950        C  0.99498956  0.78157907  0.29263296     0.14800
F951        F  0.49229110  0.70748055  0.26788943    -0.12500
F952        F  0.45609464  0.77875230  0.31267312    -0.13100
F953        F  0.43094208  0.67682395  0.28294336    -0.15300
F954        F  0.01492714  0.81456385  0.29570186    -0.13900
F955        F  0.02854418  0.81875897  0.25820850    -0.13900
F956        F  0.11383349  0.77107092  0.27179357    -0.15300
C957        C  0.22760818  0.73034404  0.29704939     0.14800
C958        C  0.24351755  0.75341291  0.28312405     0.01700
C959        C  0.27514737  0.76025788  0.27730122     0.16700
C960        C  0.29077055  0.74447362  0.28542463     0.26100
C961        C  0.27489155  0.72142444  0.29942992    -0.40200
C962        C  0.24305337  0.71436791  0.30507996     0.33100
C963        C  0.22696938  0.77009424  0.27456649     0.01800
F964        F  0.29065552  0.78187070  0.26354786    -0.12500
F965        F  0.22735966  0.69289811  0.31886399    -0.13100
C966        C  0.24149161  0.80475034  0.27541471     0.16700
C967        C  0.22678324  0.82063573  0.26649276     0.26100
C968        C  0.19713024  0.80211623  0.25675183    -0.40200
C969        C  0.18221948  0.76737819  0.25623237     0.33100
C970        C  0.19703784  0.75148641  0.26505881     0.14800
F971        F  0.27036965  0.82326971  0.28454903    -0.12500
F972        F  0.15397532  0.74899324  0.24656720    -0.13100
F973        F  0.24324317  0.85421302  0.26593536    -0.15300
F974        F  0.18293378  0.71803598  0.26371294    -0.13900
F975        F  0.19741246  0.72393139  0.30317982    -0.13900
F976        F  0.32108076  0.75116770  0.27933844    -0.15300
C977        C  0.13474243  0.52833089  0.42079973     0.14800
C978        C  0.15102469  0.56133581  0.41487041     0.01700
C979        C  0.14167817  0.58346600  0.42184114     0.16700
C980        C  0.11608975  0.57276355  0.43447141     0.26100
C981        C  0.09926693  0.53949663  0.44045193    -0.40200
C982        C  0.10900371  0.51739573  0.43343513     0.33100
C983        C  0.17765071  0.57303765  0.40125743     0.01800
F984        F  0.15758425  0.61566921  0.41644075    -0.12500
F985        F  0.09338560  0.48503785  0.43851019    -0.13100
C986        C  0.17343719  0.58440464  0.38448253     0.16700
C987        C  0.19974563  0.59896362  0.37224345     0.26100
C988        C  0.23087732  0.60254908  0.37664347    -0.40200
C989        C  0.23456990  0.58984095  0.39323714     0.33100
C990        C  0.20808487  0.57512777  0.40541495     0.14800
F991        F  0.14392746  0.58204031  0.38014272    -0.12500
F992        F  0.26388435  0.59196451  0.39781295    -0.13100
F993        F  0.19507296  0.61089078  0.35645971    -0.15300
F994        F  0.21254485  0.56415097  0.42158122    -0.13900
F995        F  0.14327910  0.50650907  0.41402124    -0.13900
F996        F  0.10778968  0.59512258  0.44067011    -0.15300
C997        C  0.36870844  0.78197263  0.40989566     0.14800
C998        C  0.39227100  0.81466503  0.40543634     0.01700
C999        C  0.40423918  0.82251103  0.38768396     0.16700
C1000       C  0.39339643  0.79768422  0.37455314     0.26100
C1001       C  0.37051627  0.76451661  0.37907683    -0.40200
C1002       C  0.35786172  0.75706414  0.39686319     0.33100
C1003       C  0.40616114  0.84025469  0.41956005     0.01800
F1004       F  0.42696116  0.85421101  0.38319750    -0.12500
F1005       F  0.33519496  0.72558965  0.40178181    -0.13100
C1006       C  0.43901830  0.85254317  0.42519220     0.16700
C1007       C  0.45318154  0.87786924  0.43796134     0.26100
C1008       C  0.43466727  0.89162621  0.44530355    -0.40200
C1009       C  0.40115771  0.87829500  0.43998541     0.33100
C1010       C  0.38705087  0.85270659  0.42725247     0.14800
F1011       F  0.45752374  0.84008955  0.41815629    -0.12500
F1012       F  0.38211013  0.89029979  0.44679057    -0.13100
F1013       F  0.48537931  0.88941211  0.44266872    -0.15300
F1014       F  0.35502636  0.84070790  0.42202575    -0.13900
F1015       F  0.35713650  0.77398397  0.42706372    -0.13900
F1016       F  0.40631824  0.80598317  0.35766144    -0.15300
C1017       C  0.42495452  0.62687995  0.39982797     0.14800
C1018       C  0.42266526  0.59624142  0.39634899     0.01700
C1019       C  0.40819626  0.57941842  0.38019642     0.16700
C1020       C  0.39488522  0.59255145  0.36791778     0.26100
C1021       C  0.39556679  0.62247174  0.37183592    -0.40200
C1022       C  0.41153450  0.63993610  0.38769020     0.33100
C1023       C  0.43391240  0.58122292  0.41010207     0.01800
F1024       F  0.40606887  0.54981020  0.37662898    -0.12500
F1025       F  0.41375241  0.66949869  0.39157798    -0.13100
C1026       C  0.41140903  0.55963419  0.42301441     0.16700
C1027       C  0.42213465  0.54620612  0.43654520     0.26100
C1028       C  0.45568728  0.55438834  0.43741215    -0.40200
C1029       C  0.47819495  0.57626577  0.42440603     0.33100
C1030       C  0.46731647  0.58954246  0.41087314     0.14800
F1031       F  0.37910441  0.55195386  0.42262425    -0.12500
F1032       F  0.51059351  0.58424431  0.42449214    -0.13100
F1033       F  0.39984226  0.52582323  0.44901854    -0.15300
F1034       F  0.48935095  0.61053279  0.39848568    -0.13900
F1035       F  0.43928898  0.64362216  0.41529393    -0.13900
F1036       F  0.37971264  0.57511818  0.35276457    -0.15300
C1037       C  0.07908515  0.61541256  0.90814130     0.14800
C1038       C  0.08637158  0.64772020  0.91214729     0.01700
C1039       C  0.08251309  0.65608601  0.92980828     0.16700
C1040       C  0.07022348  0.63196927  0.94330339     0.26100
C1041       C  0.06135572  0.59901996  0.93921009    -0.40200
C1042       C  0.06668033  0.59117389  0.92154334     0.33100
C1043       C  0.09711925  0.67264428  0.89780301     0.01800
F1044       F  0.09027187  0.68759883  0.93388269    -0.12500
F1045       F  0.05959777  0.55998899  0.91710844    -0.13100
C1046       C  0.07573984  0.68374858  0.89188706     0.16700
C1047       C  0.08664622  0.70927787  0.87924756     0.26100
C1048       C  0.11938681  0.72428082  0.87241855    -0.40200
C1049       C  0.14013600  0.71169769  0.87782512     0.33100
C1050       C  0.12900017  0.68609185  0.89043441     0.14800
F1051       F  0.04441398  0.67013519  0.89861958    -0.12500
F1052       F  0.17164161  0.72479463  0.87145636    -0.13100
F1053       F  0.06534254  0.71976406  0.87414861    -0.15300
F1054       F  0.14980235  0.67528665  0.89601765    -0.13900
F1055       F  0.08302620  0.60714832  0.89110217    -0.13900
F1056       F  0.06592550  0.64069630  0.96015096    -0.15300
C1057       C  0.34284260  0.91230298  0.93381462     0.14800
C1058       C  0.34859872  0.92477502  0.91612847     0.01700
C1059       C  0.37998266  0.95093114  0.91130561     0.16700
C1060       C  0.40563910  0.96410685  0.92391705     0.26100
C1061       C  0.40024794  0.95135721  0.94164436    -0.40200
C1062       C  0.36844763  0.92563091  0.94655901     0.33100
C1063       C  0.32181179  0.91060268  0.90266398     0.01800
F1064       F  0.38590781  0.96332727  0.89425617    -0.12500
F1065       F  0.36235912  0.91274602  0.96348869    -0.13100
C1066       C  0.30897227  0.92985318  0.89570730     0.16700
C1067       C  0.28313372  0.91636607  0.88317892     0.26100
C1068       C  0.26971047  0.88322249  0.87729930    -0.40200
C1069       C  0.28331352  0.86423656  0.88412054     0.33100
C1070       C  0.30914271  0.87789991  0.89670051     0.14800
F1071       F  0.32110352  0.96162269  0.90133896    -0.12500
F1072       F  0.27159536  0.83237321  0.87880228    -0.13100
F1073       F  0.27114611  0.93583325  0.87703160    -0.15300
F1074       F  0.32206214  0.85931524  0.90297878    -0.13900
F1075       F  0.31235483  0.88728295  0.93870644    -0.13900
F1076       F  0.44088358  0.48095571  0.91729385    -0.15300
C1077       C  0.11992657  0.92485819  0.89813009     0.14800
C1078       C  0.09427042  0.90283140  0.90955024    -0.02300
C1079       C  0.08057961  0.86858830  0.90724088     0.16700
C1080       C  0.09230622  0.85632713  0.89359158     0.26100
C1081       C  0.11811325  0.87826718  0.88200151    -0.40200
C1082       C  0.13190364  0.91275993  0.88451624     0.33100
C1083       C  0.07928991  0.91545078  0.92256721     0.01800
F1084       F  0.05532927  0.84702835  0.91802500    -0.12500
F1085       F  0.15644011  0.93487148  0.87355456    -0.13100
C1086       C  0.05453491  0.92190436  0.91660802     0.16700
C1087       C  0.04007669  0.93416292  0.92852081     0.26100
C1088       C  0.05046765  0.94071037  0.94672308    -0.40200
C1089       C  0.07478988  0.93329947  0.95280514     0.33100
C1090       C  0.08913377  0.92077278  0.94074907     0.14800
F1091       F  0.04446276  0.91644489  0.89911056    -0.12500
F1092       F  0.08540891  0.93906050  0.97019741    -0.13100
F1093       F  0.52726971  0.95163776  0.91948225    -0.15300
F1094       F  0.11300594  0.91438722  0.94670147    -0.13900
F1095       F  0.13291410  0.95811367  0.89996911    -0.13900
F1096       F  0.07855007  0.82296771  0.89189303    -0.15300
C1097       C  0.99601883  0.75073370  0.79940269     0.14800
C1098       C  0.49513986  0.74980102  0.78122020     0.01700
C1099       C  0.02341662  0.76170167  0.77038611     0.16700
C1100       C  0.05460287  0.77722825  0.77897830     0.26100
C1101       C  0.05689170  0.77951374  0.79798122    -0.40200
C1102       C  0.02694840  0.76625246  0.80802295     0.33100
C1103       C  0.46201840  0.73225600  0.77229565     0.01800
F1104       F  0.02203703  0.75940149  0.75210056    -0.12500
F1105       F  0.02724720  0.76824629  0.82631886    -0.13100
C1106       C  0.45137152  0.74972785  0.76129776     0.16700
C1107       C  0.41995728  0.73329785  0.75315181     0.26100
C1108       C  0.39898208  0.69890778  0.75538393    -0.40200
C1109       C  0.40913487  0.68157608  0.76682235     0.33100
C1110       C  0.44038010  0.69813016  0.77524996     0.14800
F1111       F  0.47122332  0.78285103  0.75868895    -0.12500
F1112       F  0.38920246  0.64849858  0.76946259    -0.13100
F1113       F  0.40982502  0.75105086  0.74317937    -0.15300
F1114       F  0.44989192  0.68071226  0.78598234    -0.13900
F1115       F  0.46909212  0.73947987  0.81019319    -0.13900
F1116       F  0.08242714  0.78974302  0.76864729    -0.15300
C1117       C  0.24352558  0.97528914  0.77141619     0.14800
C1118       C  0.25227578  0.50371133  0.78214422     0.01700
C1119       C  0.24182167  0.00139940  0.79937114     0.16700
C1120       C  0.22584281  0.97049185  0.80783266     0.26100
C1121       C  0.21855093  0.94134303  0.79824513    -0.40200
C1122       C  0.22749541  0.94413646  0.77987718     0.33100
C1123       C  0.26845921  0.53659225  0.77343481     0.01800
F1124       F  0.26538295  0.52984128  0.81110041    -0.12500
F1125       F  0.22145299  0.91692640  0.77018332    -0.13100
C1126       C  0.25313934  0.55605581  0.77367473     0.16700
C1127       C  0.26876797  0.58747825  0.76563619     0.26100
C1128       C  0.29994053  0.59979488  0.75733135    -0.40200
C1129       C  0.31550948  0.58053332  0.75748371     0.33100
C1130       C  0.29991133  0.54918108  0.76552475     0.14800
F1131       F  0.22258310  0.54410851  0.78119263    -0.12500
F1132       F  0.34534053  0.59168656  0.74924447    -0.13100
F1133       F  0.25241732  0.60475273  0.76485696    -0.15300
F1134       F  0.31539091  0.53099137  0.76555619    -0.13900
F1135       F  0.23917731  0.47601955  0.75354534    -0.13900
F1136       F  0.21749737  0.96932215  0.82550216    -0.15300
C1137       C  0.23803405  0.76096918  0.76871343     0.14800
C1138       C  0.26573107  0.76206533  0.77710988     0.01700
C1139       C  0.27706501  0.77879400  0.79357099     0.16700
C1140       C  0.26010983  0.79286363  0.80199764     0.26100
C1141       C  0.23114776  0.79030176  0.79418577    -0.40200
C1142       C  0.22084189  0.77500599  0.77716997     0.33100
C1143       C  0.28133883  0.74370203  0.76944785     0.01800
F1144       F  0.30428189  0.78091489  0.80167837    -0.12500
F1145       F  0.19316734  0.77200213  0.76919553    -0.13100
C1146       C  0.30268533  0.75607227  0.75452351     0.16700
C1147       C  0.31615712  0.73776009  0.74697785     0.26100
C1148       C  0.30736214  0.70603482  0.75375977    -0.40200
C1149       C  0.28786925  0.69490898  0.76950449     0.33100
C1150       C  0.27496777  0.71357434  0.77725032     0.14800
F1151       F  0.31048308  0.78589088  0.74728144    -0.12500
F1152       F  0.28020214  0.66545561  0.77708538    -0.13100
F1153       F  0.33772681  0.75100311  0.73296495    -0.15300
F1154       F  0.25537178  0.70176669  0.79212038    -0.13900
F1155       F  0.22679598  0.74498381  0.75270898    -0.13900
F1156       F  0.27192976  0.80873140  0.81799282    -0.15300
C1157       C  0.00363453  0.72199102  0.67670398     0.14800
C1158       C  0.49554452  0.73985351  0.69071333     0.01700
C1159       C  0.01809626  0.77339955  0.69210635     0.16700
C1160       C  0.04868824  0.78919375  0.68308873     0.26100
C1161       C  0.05718526  0.77152907  0.67080048    -0.40200
C1162       C  0.03446433  0.73758388  0.66792591     0.33100
C1163       C  0.46226314  0.72357615  0.69950333     0.01800
F1164       F  0.01111435  0.79097877  0.70421409    -0.12500
F1165       F  0.04140804  0.71969835  0.65601503    -0.13100
C1166       C  0.44997881  0.69300806  0.70850857     0.16700
C1167       C  0.41830585  0.67757113  0.71641356     0.26100
C1168       C  0.39843003  0.69245446  0.71550264    -0.40200
C1169       C  0.41082949  0.72307882  0.70669619     0.33100
C1170       C  0.44227201  0.73835627  0.69863543     0.14800
F1171       F  0.46909641  0.67865518  0.71015206    -0.12500
F1172       F  0.39356574  0.73944300  0.70701784    -0.13100
F1173       F  0.40743347  0.64861752  0.72549936    -0.15300
F1174       F  0.45328694  0.76779136  0.69004508    -0.13900
F1175       F  0.48005040  0.69135928  0.67281226    -0.13900
F1176       F  0.07012823  0.82174787  0.68654651    -0.15300
C1177       C  0.29519168  0.55267815  0.69867345     0.14800
C1178       C  0.26083081  0.53155839  0.70148506     0.01700
C1179       C  0.24344589  0.54330009  0.71185315     0.16700
C1180       C  0.26016830  0.57513613  0.71946515     0.26100
C1181       C  0.29477387  0.59553073  0.71736672    -0.40200
C1182       C  0.31199100  0.58429001  0.70659682     0.33100
C1183       C  0.24324897  0.49771374  0.69327176     0.01800
F1184       F  0.21036021  0.52369135  0.71494134    -0.12500
F1185       F  0.34525948  0.60362346  0.70410500    -0.13100
C1186       C  0.26147889  0.98025786  0.69181907     0.16700
C1187       C  0.24658596  0.94898920  0.68349408     0.26100
C1188       C  0.21649094  0.93691451  0.67389605    -0.40200
C1189       C  0.20159236  0.95693825  0.67310729     0.33100
C1190       C  0.21689137  0.98843547  0.68108982     0.14800
F1191       F  0.28994762  0.99056478  0.70135301    -0.12500
F1192       F  0.17273535  0.94674610  0.66397368    -0.13100
F1193       F  0.26176653  0.93061108  0.68486817    -0.15300
F1194       F  0.20408098  0.50920094  0.67857140    -0.13900
F1195       F  0.31247656  0.54276283  0.68809027    -0.13900
F1196       F  0.24246781  0.58616138  0.72881239    -0.15300
C1197       C  0.24704766  0.69752052  0.70969152     0.14800
C1198       C  0.26198060  0.71806363  0.69464113     0.01700
C1199       C  0.29239301  0.72237848  0.68824342     0.16700
C1200       C  0.30874027  0.70840402  0.69745878     0.26100
C1201       C  0.29537611  0.69047953  0.71350946    -0.40200
C1202       C  0.26335199  0.68346369  0.71886753     0.33100
C1203       C  0.24657741  0.73590322  0.68595131     0.01800
F1204       F  0.30650077  0.74055357  0.67313394    -0.12500
F1205       F  0.24801043  0.66334731  0.73319627    -0.13100
C1206       C  0.26428963  0.77070927  0.68484947     0.16700
C1207       C  0.25029570  0.78784305  0.67648419     0.26100
C1208       C  0.21800760  0.77053417  0.66905924    -0.40200
C1209       C  0.20016964  0.73550282  0.67040951     0.33100
C1210       C  0.21433531  0.71848426  0.67875315     0.14800
F1211       F  0.29516986  0.78824628  0.69213425    -0.12500
F1212       F  0.16913429  0.71739949  0.66339313    -0.13100
F1213       F  0.26853691  0.82145171  0.67573308    -0.15300
F1214       F  0.19678470  0.68482249  0.67940726    -0.13900
F1215       F  0.21729554  0.69214930  0.71597365    -0.13900
F1216       F  0.33805664  0.71335288  0.69088480    -0.15300
C1217       C  0.07947897  0.62488943  0.55295739     0.14800
C1218       C  0.08476711  0.65617732  0.54791259     0.01700
C1219       C  0.07679265  0.66107555  0.53029605     0.16700
C1220       C  0.06285162  0.63466246  0.51801561     0.26100
C1221       C  0.05665619  0.60301555  0.52325496    -0.40200
C1222       C  0.06551678  0.59854890  0.54080471     0.33100
C1223       C  0.09775654  0.68323766  0.56133084     0.01800
F1224       F  0.08145420  0.69112781  0.52520898    -0.12500
F1225       F  0.06091623  0.56866250  0.54623647    -0.13100
C1226       C  0.12831131  0.71230065  0.55853223     0.16700
C1227       C  0.14087978  0.73742575  0.57154348     0.26100
C1228       C  0.12309780  0.73375564  0.58762693    -0.40200
C1229       C  0.09256008  0.70447967  0.59040355     0.33100
C1230       C  0.07996279  0.67951691  0.57732810     0.14800
F1231       F  0.14628709  0.71600635  0.54336758    -0.12500
F1232       F  0.07431138  0.70045069  0.60549090    -0.13100
F1233       F  0.17076993  0.76504894  0.56855473    -0.15300
F1234       F  0.05002302  0.65184427  0.58012602    -0.13900
F1235       F  0.08796586  0.61987928  0.56972470    -0.13900
F1236       F  0.55092042  0.64179186  0.50079515    -0.15300
C1237       C  0.29300519  0.93043133  0.56718705     0.14800
C1238       C  0.32204902  0.92856818  0.56876773     0.01700
C1239       C  0.32684342  0.91353785  0.58403973     0.16700
C1240       C  0.30187434  0.89874720  0.59712070     0.26100
C1241       C  0.27185476  0.89878767  0.59497628    -0.40200
C1242       C  0.26809844  0.91574039  0.58020351     0.33100
C1243       C  0.34667253  0.94099870  0.55407415     0.01800
F1244       F  0.35501679  0.91179002  0.58579376    -0.12500
F1245       F  0.24001018  0.91761509  0.57821299    -0.13100
C1246       C  0.37766409  0.96947256  0.55665103     0.16700
C1247       C  0.40166236  0.98023675  0.54308479     0.26100
C1248       C  0.39505081  0.96253574  0.52671463    -0.40200
C1249       C  0.36350216  0.93460816  0.52392037     0.33100
C1250       C  0.33945532  0.92389858  0.53755685     0.14800
F1251       F  0.38473222  0.98665425  0.57239160    -0.12500
F1252       F  0.35661307  0.91662429  0.50848025    -0.13100
F1253       F  0.43444369  0.50557897  0.54714859    -0.15300
F1254       F  0.30957506  0.89605310  0.53496775    -0.13900
F1255       F  0.28858327  0.94597662  0.55283877    -0.13900
F1256       F  0.30616345  0.88259750  0.61119815    -0.15300
C1257       C  0.11666184  0.90620299  0.56292731     0.14800
C1258       C  0.08934199  0.90967247  0.56758907     0.01700
C1259       C  0.07528856  0.90020407  0.58490131     0.16700
C1260       C  0.08808215  0.88678027  0.59730112     0.26100
C1261       C  0.11499434  0.88250451  0.59246538    -0.40200
C1262       C  0.12934498  0.89271384  0.57518303     0.33100
C1263       C  0.07559978  0.92308365  0.55425450     0.01800
F1264       F  0.04866445  0.90320718  0.58961074    -0.12500
F1265       F  0.15614607  0.89022699  0.57016362    -0.13100
C1266       C  0.06382913  0.90713179  0.53754839     0.16700
C1267       C  0.05130787  0.92008314  0.52476133     0.26100
C1268       C  0.05011994  0.94906283  0.52857862    -0.40200
C1269       C  0.06230209  0.96517564  0.54527815     0.33100
C1270       C  0.07499945  0.95230469  0.55797007     0.14800
F1271       F  0.06391721  0.87862747  0.53377033    -0.12500
F1272       F  0.06257635  0.99381482  0.54921278    -0.13100
F1273       F  0.03943708  0.90370451  0.50890909    -0.15300
F1274       F  0.08736762  0.96875333  0.57376069    -0.13900
F1275       F  0.13138636  0.91633359  0.54651573    -0.13900
F1276       F  0.07354133  0.87710766  0.61377039    -0.15300
Zn1277     Zn  0.64217882  0.35311992  0.64161716     1.49700
Zn1278     Zn  0.66836909  0.33403019  0.60693285     1.49400
Zn1279     Zn  0.71207834  0.35305642  0.64279411     1.49100
Zn1280     Zn  0.64205183  0.28406193  0.63959803     1.49500
O1281       O  0.66633613  0.33115595  0.63303820    -1.82000
O1282       O  0.62636020  0.37078334  0.62086608    -0.72700
O1283       O  0.71428192  0.36124244  0.59850605    -0.72500
O1284       O  0.71993057  0.39191986  0.65900153    -0.72000
O1285       O  0.64455133  0.35587034  0.59704442    -0.72700
O1286       O  0.67245457  0.39249490  0.65701269    -0.72300
O1287       O  0.74687549  0.37289805  0.62245081    -0.72900
O1288       O  0.67076927  0.27265388  0.65507667    -0.72300
O1289       O  0.65030405  0.29017289  0.59494995    -0.73000
O1290       O  0.71920415  0.31949585  0.65701895    -0.72400
O1291       O  0.62887876  0.25440344  0.61758137    -0.72900
O1292       O  0.59997573  0.27275166  0.65314058    -0.72800
O1293       O  0.60179842  0.32121609  0.65621322    -0.72600
C1294       C  0.62972542  0.36996623  0.60382266     0.79200
C1295       C  0.74298118  0.37483199  0.60551863     0.79700
C1296       C  0.70222872  0.40509726  0.66273029     0.78700
C1297       C  0.70071963  0.28869044  0.66066516     0.79000
C1298       C  0.63466527  0.26062310  0.60081357     0.80200
C1299       C  0.58765865  0.29004155  0.65899529     0.79200
C1300       C  0.83167802  0.16293633  0.71686677     0.47500
H1301       H  0.83079441  0.16092189  0.70195781    -0.01500
C1302       C  0.83377845  0.16713170  0.75209243     0.47600
H1303       H  0.83501772  0.16881184  0.76700544    -0.01500
C1304       C  0.81306598  0.12914338  0.72627800    -0.15200
C1305       C  0.86724830  0.17991176  0.72479842    -0.14900
C1306       C  0.81520036  0.18202917  0.72456511    -0.15300
C1307       C  0.81398994  0.13123813  0.74477204    -0.15300
C1308       C  0.86826918  0.18205934  0.74327828    -0.14800
C1309       C  0.81779422  0.18576227  0.74311776    -0.15200
Zn1310     Zn  0.62384474  0.31144292  0.84551485     1.49700
Zn1311     Zn  0.66745990  0.33405565  0.80883657     1.49400
Zn1312     Zn  0.69045965  0.37956271  0.84522556     1.49100
Zn1313     Zn  0.69333634  0.31329888  0.84389182     1.49500
O1314       O  0.66869013  0.33453669  0.83555950    -1.82000
O1315       O  0.58996193  0.29734039  0.82571793    -0.72700
O1316       O  0.69078589  0.38230251  0.79977558    -0.72500
O1317       O  0.66180384  0.38810977  0.86236423    -0.72000
O1318       O  0.61866514  0.30980944  0.80007279    -0.72700
O1319       O  0.61593843  0.33923998  0.86360130    -0.72300
O1320       O  0.70635710  0.41202879  0.82516059    -0.72900
O1321       O  0.73144350  0.34270709  0.85993794    -0.72300
O1322       O  0.69299853  0.31164272  0.79840012    -0.73000
O1323       O  0.73018751  0.38952114  0.85993923    -0.72400
O1324       O  0.71205925  0.30037371  0.82331219    -0.72900
O1325       O  0.66452316  0.27297813  0.85847298    -0.72800
O1326       O  0.61592439  0.27111425  0.85923333    -0.72600
C1327       C  0.59093860  0.29746800  0.80852760     0.79200
C1328       C  0.70535738  0.41018082  0.80802683     0.79700
C1329       C  0.63317402  0.36908925  0.86901130     0.78700
C1330       C  0.74308809  0.37250096  0.86510948     0.79000
C1331       C  0.71019004  0.30067790  0.80620066     0.80200
C1332       C  0.63448978  0.25944809  0.86370380     0.79200
Zn1333     Zn  0.85372089  0.21066439  0.32790133     1.49700
Zn1334     Zn  0.85371588  0.14145687  0.32523052     1.49400
Zn1335     Zn  0.82956420  0.15995898  0.36106762     1.49100
Zn1336     Zn  0.78418617  0.14234789  0.32714528     1.49500
O1337       O  0.83051760  0.16371049  0.33504487    -1.82000
O1338       O  0.89601372  0.22233000  0.31397116    -0.72700
O1339       O  0.87144508  0.12415259  0.34529036    -0.72500
O1340       O  0.84797473  0.20391578  0.37256722    -0.72000
O1341       O  0.89445135  0.17409415  0.31087496    -0.72700
O1342       O  0.86708169  0.24017759  0.35014054    -0.72300
O1343       O  0.85669713  0.14098207  0.36967037    -0.72900
O1344       O  0.75101636  0.12029054  0.34754278    -0.72300
O1345       O  0.82170309  0.10259333  0.30956587    -0.73000
O1346       O  0.78414017  0.13096178  0.37104273    -0.72400
O1347       O  0.77548233  0.10564978  0.31010621    -0.72900
O1348       O  0.77414222  0.17511995  0.31501090    -0.72800
O1349       O  0.82329403  0.22137581  0.31300145    -0.72600
C1350       C  0.90882308  0.20535232  0.30821096     0.79200
C1351       C  0.87132664  0.12711358  0.36240508     0.79700
C1352       C  0.86262366  0.23365614  0.36696942     0.78700
C1353       C  0.75518250  0.11725699  0.36426680     0.79000
C1354       C  0.79148452  0.09155085  0.30489433     0.80200
C1355       C  0.79204494  0.20517495  0.30998582     0.79200
C1356       C  0.66871034  0.33454275  0.21724716     0.47500
H1357       H  0.66908580  0.33329369  0.20229288    -0.01500
C1358       C  0.66768680  0.33645609  0.25245454     0.47600
H1359       H  0.66672516  0.33678181  0.26742190    -0.01500
C1360       C  0.63337345  0.31797562  0.22545011    -0.15200
C1361       C  0.68568362  0.31726162  0.22632822    -0.14900
C1362       C  0.68717472  0.37011459  0.22497870    -0.15300
C1363       C  0.63304779  0.31918583  0.24394336    -0.15300
C1364       C  0.68515527  0.31819033  0.24487148    -0.14800
C1365       C  0.68507716  0.37104124  0.24360192    -0.15200
Zn1366     Zn  0.85786055  0.14483424  0.14107235     1.49700
Zn1367     Zn  0.83606022  0.17140273  0.10757568     1.49400
Zn1368     Zn  0.78877506  0.14511420  0.14200667     1.49100
Zn1369     Zn  0.85870252  0.21444575  0.14308233     1.49500
O1370       O  0.83524851  0.16891615  0.13370136    -1.82000
O1371       O  0.87462491  0.13035787  0.11960337    -0.72700
O1372       O  0.79096679  0.14880189  0.09728164    -0.72500
O1373       O  0.77922487  0.10400573  0.15658861    -0.72000
O1374       O  0.86088346  0.15147983  0.09663252    -0.72700
O1375       O  0.82699980  0.10405798  0.15560347    -0.72300
O1376       O  0.75685516  0.13058733  0.12067823    -0.72900
O1377       O  0.82709076  0.22315362  0.15771095    -0.72300
O1378       O  0.85681842  0.21745480  0.09850524    -0.73000
O1379       O  0.77896237  0.17572024  0.15702144    -0.72400
O1380       O  0.87591564  0.24881412  0.12296547    -0.72900
O1381       O  0.89846180  0.22221906  0.15802118    -0.72800
O1382       O  0.89838011  0.17453461  0.15586468    -0.72600
C1383       C  0.87462675  0.13583709  0.10276183     0.79200
C1384       C  0.76175793  0.13428051  0.10368922     0.79700
C1385       C  0.79673388  0.09076107  0.16061658     0.78700
C1386       C  0.79632247  0.20606369  0.16174611     0.79000
C1387       C  0.87203838  0.24576377  0.10592004     0.80200
C1388       C  0.91157119  0.20439360  0.16139447     0.79200
Zn1389     Zn  0.95695054  0.48216322  0.99344389     1.49700
Zn1390     Zn  0.52502157  0.04779537  0.99102897     1.49400
Zn1391     Zn  0.52579043  0.48352888  0.99617081     1.49100
Zn1392     Zn  0.50257798  0.99859429  0.95831175     1.49500
O1393       O  0.50159471  0.00110599  0.98418711    -1.82000
O1394       O  0.94604048  0.01063796  0.00650879    -0.72700
O1395       O  0.56304564  0.05785376  0.00727241    -0.72500
O1396       O  0.99499450  0.44407243  0.01119966    -0.72000
O1397       O  0.99424280  0.05761640  0.00596460    -0.72700
O1398       O  0.94772691  0.44513340  0.01069524    -0.72300
O1399       O  0.56225319  0.01000107  0.00965124    -0.72900
O1400       O  0.52386880  0.47257837  0.95278504    -0.72300
O1401       O  0.54246066  0.07836620  0.96967793    -0.73000
O1402       O  0.54445808  0.46402483  0.97780989    -0.72400
O1403       O  0.52693677  0.04292251  0.94694627    -0.72900
O1404       O  0.95814110  0.47899945  0.94946915    -0.72800
O1405       O  0.92385468  0.46468741  0.97272588    -0.72600
C1406       C  0.96411689  0.04090020  0.01104477     0.79200
C1407       C  0.57457617  0.04044508  0.01382491     0.79700
C1408       C  0.96528464  0.43314786  0.01660061     0.78700
C1409       C  0.53980603  0.46080736  0.96079030     0.79000
C1410       C  0.54134009  0.07244050  0.95285899     0.80200
C1411       C  0.92892854  0.46603624  0.95575908     0.79200
Zn1412     Zn  0.49957811  0.50295341  0.50926370     1.49700
Zn1413     Zn  0.51704908  0.47247562  0.47613432     1.49400
Zn1414     Zn  0.95188803  0.47802587  0.47439275     1.49100
Zn1415     Zn  0.52245973  0.04263063  0.47483258     1.49500
O1416       O  0.49823982  0.50025613  0.48329984    -1.82000
O1417       O  0.52191916  0.48048671  0.52047829    -0.72700
O1418       O  0.98504628  0.43148042  0.46206972    -0.72500
O1419       O  0.91897128  0.46584078  0.49531522    -0.72000
O1420       O  0.53461389  0.45835654  0.49754044    -0.72700
O1421       O  0.95312553  0.48021074  0.51878119    -0.72300
O1422       O  0.93987937  0.43618260  0.46061803    -0.72900
O1423       O  0.99407475  0.04938698  0.45725378    -0.72300
O1424       O  0.55392211  0.99597809  0.46023245    -0.73000
O1425       O  0.94466852  0.00358889  0.45901765    -0.72400
O1426       O  0.56059957  0.04652507  0.46027208    -0.72900
O1427       O  0.54097814  0.07700940  0.49475756    -0.72800
O1428       O  0.52318983  0.04469205  0.51889132    -0.72600
C1429       C  0.53486822  0.46405548  0.51438985     0.79200
C1430       C  0.95534974  0.42082843  0.45674319     0.79700
C1431       C  0.92407947  0.46825174  0.51232036     0.78700
C1432       C  0.96391614  0.03213515  0.45225028     0.79000
C1433       C  0.56951887  0.02609432  0.45506823     0.80200
C1434       C  0.53943917  0.07322105  0.51181887     0.79200
C1435       C  0.63425091  0.04972612  0.05116127     0.14800
C1436       C  0.65274444  0.08426019  0.05316027     0.01700
C1437       C  0.64598972  0.10457568  0.04205838     0.16700
C1438       C  0.62082876  0.09045718  0.02910952     0.26100
C1439       C  0.60214092  0.05567467  0.02700690    -0.40200
C1440       C  0.60918679  0.03549482  0.03822263     0.33100
C1441       C  0.68017933  0.09888493  0.06627029     0.01800
F1442       F  0.66366471  0.13809366  0.04385230    -0.12500
F1443       F  0.59153330  0.00190309  0.03694964    -0.13100
C1444       C  0.71294720  0.11756739  0.06011517     0.16700
C1445       C  0.73934084  0.12908650  0.07224415     0.26100
C1446       C  0.73341641  0.12217143  0.09091565    -0.40200
C1447       C  0.70027814  0.10402502  0.09704401     0.33100
C1448       C  0.67392510  0.09245522  0.08478452     0.14800
F1449       F  0.71943173  0.12377704  0.04221234    -0.12500
F1450       F  0.69322156  0.09707111  0.11483152    -0.13100
F1451       F  0.77066796  0.14680645  0.06552609    -0.15300
F1452       F  0.64220422  0.07482577  0.09095264    -0.13900
F1453       F  0.64092989  0.02976427  0.06157808    -0.13900
F1454       F  0.61503434  0.11092643  0.01858803    -0.15300
C1455       C  0.91108750  0.37641650  0.05417634     0.14800
C1456       C  0.92571292  0.35677833  0.05711023     0.01700
C1457       C  0.95325633  0.36217652  0.04677953     0.16700
C1458       C  0.96596875  0.38678309  0.03352424     0.26100
C1459       C  0.95127723  0.40650237  0.03037125    -0.40200
C1460       C  0.92379348  0.40118245  0.04097494     0.33100
C1461       C  0.91129862  0.32949438  0.07032404     0.01800
F1462       F  0.96732850  0.34297721  0.04924330    -0.12500
F1463       F  0.90958956  0.42034980  0.03889354    -0.13100
C1464       C  0.88014269  0.30158998  0.06694372     0.16700
C1465       C  0.86721360  0.27460272  0.07872103     0.26100
C1466       C  0.88508856  0.27530282  0.09423533    -0.40200
C1467       C  0.91597701  0.30364388  0.09783368     0.33100
C1468       C  0.92912540  0.33048044  0.08584733     0.14800
F1469       F  0.86272840  0.30010689  0.05190385    -0.12500
F1470       F  0.93406716  0.30473473  0.11247483    -0.13100
F1471       F  0.83715036  0.24774185  0.07494522    -0.15300
F1472       F  0.95939691  0.35729853  0.08924693    -0.13900
F1473       F  0.88465396  0.37175037  0.06424588    -0.13900
F1474       F  0.99230824  0.39081691  0.02358836    -0.15300
C1475       C  0.90843034  0.08475602  0.08123011     0.14800
C1476       C  0.91676520  0.09884955  0.06388835     0.01700
C1477       C  0.91308156  0.12624285  0.05980014     0.16700
C1478       C  0.90033758  0.13879951  0.07263898     0.26100
C1479       C  0.89065379  0.12395009  0.08982924    -0.40200
C1480       C  0.89544106  0.09716238  0.09411311     0.33100
C1481       C  0.92834387  0.08443618  0.04985242     0.01800
F1482       F  0.92086084  0.14024624  0.04313123    -0.12500
F1483       F  0.88659778  0.08225304  0.11052509    -0.13100
C1484       C  0.90836429  0.05112286  0.04475607     0.16700
C1485       C  0.91929512  0.03722433  0.03163295     0.26100
C1486       C  0.95056227  0.05650482  0.02329188    -0.40200
C1487       C  0.96992113  0.09034945  0.02798254     0.33100
C1488       C  0.95898948  0.10403785  0.04121911     0.14800
F1489       F  0.87810012  0.03200591  0.05248605    -0.12500
F1490       F  0.99977700  0.11027661  0.02002760    -0.13100
F1491       F  0.89943635  0.00467586  0.02746391    -0.15300
F1492       F  0.97881543  0.13631282  0.04596148    -0.13900
F1493       F  0.91273526  0.05883674  0.08564370    -0.13900
F1494       F  0.89745080  0.16553780  0.06815246    -0.15300
C1495       C  0.98316971  0.26003629  0.19235880     0.14800
C1496       C  0.50604967  0.25036844  0.18922160     0.01700
C1497       C  0.49755667  0.22416127  0.17705530     0.16700
C1498       C  0.96606711  0.20769108  0.16821629     0.26100
C1499       C  0.94345623  0.21899674  0.17140576    -0.40200
C1500       C  0.95233406  0.24528036  0.18362629     0.33100
C1501       C  0.53937892  0.26747182  0.19784401     0.01800
F1502       F  0.51965990  0.21405632  0.17310777    -0.12500
F1503       F  0.93104222  0.25652803  0.18728464    -0.13100
C1504       C  0.55061493  0.24955284  0.20807969     0.16700
C1505       C  0.58191684  0.26589672  0.21632443     0.26100
C1506       C  0.60235495  0.30044899  0.21466331    -0.40200
C1507       C  0.59102450  0.31836124  0.20457788     0.33100
C1508       C  0.56004744  0.30199080  0.19602456     0.14800
F1509       F  0.53077132  0.21640714  0.21063428    -0.12500
F1510       F  0.60867319  0.35193227  0.20415016    -0.13100
F1511       F  0.59188288  0.24816983  0.22647897    -0.15300
F1512       F  0.55002575  0.31996197  0.18612780    -0.13900
F1513       F  0.99060691  0.28471061  0.20445405    -0.13900
F1514       F  0.95880628  0.18287050  0.15624961    -0.15300
C1515       C  0.73474662  0.01437278  0.18737679     0.14800
C1516       C  0.75501682  0.49523345  0.18670189     0.01700
C1517       C  0.78355202  0.00994122  0.18128429     0.16700
C1518       C  0.79844913  0.04077058  0.17257946     0.26100
C1519       C  0.78153725  0.05882491  0.17091389    -0.40200
C1520       C  0.74959097  0.04532909  0.17870017     0.33100
C1521       C  0.73958110  0.46213298  0.19538926     0.01800
F1522       F  0.80019350  0.99290646  0.18213961    -0.12500
F1523       F  0.73260534  0.06203265  0.17801402    -0.13100
C1524       C  0.70992431  0.43582498  0.18851588     0.16700
C1525       C  0.69403634  0.40510874  0.19732644     0.26100
C1526       C  0.70706709  0.40034608  0.21349054    -0.40200
C1527       C  0.73855949  0.42583971  0.21929278     0.33100
C1528       C  0.75428009  0.45663894  0.21055674     0.14800
F1529       F  0.69617685  0.44002702  0.17328860    -0.12500
F1530       F  0.75388751  0.42118963  0.23367141    -0.13100
F1531       F  0.66554553  0.38052474  0.19016213    -0.15300
F1532       F  0.78327463  0.48149716  0.21730256    -0.13900
F1533       F  0.70798121  0.50085392  0.19438198    -0.13900
F1534       F  0.82922676  0.05242161  0.16542622    -0.15300
C1535       C  0.75006495  0.29521135  0.21052690     0.14800
C1536       C  0.73215974  0.27027208  0.19770040     0.01700
C1537       C  0.69927636  0.26201156  0.19364147     0.16700
C1538       C  0.68431016  0.27766982  0.20269565     0.26100
C1539       C  0.70207061  0.30204769  0.21582335    -0.40200
C1540       C  0.73547450  0.31148544  0.21912259     0.33100
C1541       C  0.74821872  0.25355493  0.18840777     0.01800
F1542       F  0.68179552  0.23905598  0.18076302    -0.12500
F1543       F  0.75433134  0.33703375  0.23040793    -0.13100
C1544       C  0.73389983  0.21885290  0.18896150     0.16700
C1545       C  0.74957653  0.20335114  0.18051211     0.26100
C1546       C  0.78016122  0.22229998  0.17147202    -0.40200
C1547       C  0.79444551  0.25710717  0.17102897     0.33100
C1548       C  0.77854779  0.27244852  0.17928265     0.14800
F1549       F  0.70501664  0.19996178  0.19802178    -0.12500
F1550       F  0.82340392  0.27645554  0.16212113    -0.13100
F1551       F  0.73496927  0.16980492  0.18142808    -0.15300
F1552       F  0.79252881  0.30590524  0.17801552    -0.13900
F1553       F  0.78168420  0.30356662  0.21493448    -0.13900
F1554       F  0.65230876  0.26862095  0.19884276    -0.15300
C1555       C  0.77249235  0.01293017  0.27964885     0.14800
C1556       C  0.74265679  0.49956385  0.27758053     0.01700
C1557       C  0.72119203  0.01385125  0.28356215     0.16700
C1558       C  0.73889506  0.04527334  0.29141096     0.26100
C1559       C  0.77363381  0.06052050  0.29410361    -0.40200
C1560       C  0.79028645  0.04420391  0.28769516     0.33100
C1561       C  0.72451675  0.46552001  0.27014455     0.01800
F1562       F  0.69153547  0.49897179  0.28298092    -0.12500
F1563       F  0.82371130  0.05804757  0.28950695    -0.13100
C1564       C  0.72817295  0.44015969  0.27809408     0.16700
C1565       C  0.71339283  0.40864679  0.27027008     0.26100
C1566       C  0.69521079  0.40210768  0.25412303    -0.40200
C1567       C  0.68827214  0.42642428  0.24749469     0.33100
C1568       C  0.70349796  0.45810907  0.25514459     0.14800
F1569       F  0.74638800  0.44605018  0.29339644    -0.12500
F1570       F  0.66728269  0.41975198  0.23334503    -0.13100
F1571       F  0.71764437  0.38502666  0.27839073    -0.15300
F1572       F  0.69872640  0.48188951  0.24746986    -0.13900
F1573       F  0.78922912  0.99781102  0.27363844    -0.13900
F1574       F  0.72154909  0.06000737  0.29700242    -0.15300
C1575       C  0.54988073  0.30458123  0.26129267     0.14800
C1576       C  0.54068858  0.27789023  0.27321142     0.01700
C1577       C  0.56316092  0.26650443  0.27645975     0.16700
C1578       C  0.59370153  0.28067309  0.26737609     0.26100
C1579       C  0.60215858  0.30630969  0.25485922    -0.40200
C1580       C  0.58048247  0.31885900  0.25232407     0.33100
C1581       C  0.50723875  0.26115165  0.28171705     0.01800
F1582       F  0.55537163  0.24148459  0.28835859    -0.12500
F1583       F  0.58898353  0.34500530  0.24115750    -0.13100
C1584       C  0.98326070  0.22021171  0.27944145     0.16700
C1585       C  0.95195120  0.20436444  0.28779100     0.26100
C1586       C  0.94159605  0.22239862  0.29870475    -0.40200
C1587       C  0.96358179  0.25673579  0.30103013     0.33100
C1588       C  0.49717904  0.27869077  0.29307614     0.14800
F1589       F  0.99205282  0.20222837  0.26868853    -0.12500
F1590       F  0.95529048  0.27508168  0.31180797    -0.13100
F1591       F  0.93161949  0.17138128  0.28494342    -0.15300
F1592       F  0.51835472  0.31118363  0.29682756    -0.13900
F1593       F  0.52875370  0.31613456  0.25790554    -0.13900
F1594       F  0.61453410  0.26862866  0.27034969    -0.15300
C1595       C  0.72919064  0.23185461  0.29873761     0.14800
C1596       C  0.74470783  0.25383752  0.28431620     0.01700
C1597       C  0.77591860  0.25976398  0.27827529     0.16700
C1598       C  0.79139557  0.24393031  0.28654824     0.26100
C1599       C  0.77580311  0.22176677  0.30094856    -0.40200
C1600       C  0.74450767  0.21585572  0.30693845     0.33100
C1601       C  0.72811183  0.27015107  0.27534451     0.01800
F1602       F  0.79105554  0.28038464  0.26409688    -0.12500
F1603       F  0.72915844  0.19529933  0.32111379    -0.13100
C1604       C  0.74230385  0.30477879  0.27600635     0.16700
C1605       C  0.72778523  0.32035003  0.26655983     0.26100
C1606       C  0.69855972  0.30154865  0.25650851    -0.40200
C1607       C  0.68406855  0.26683421  0.25608431     0.33100
C1608       C  0.69871244  0.25125746  0.26544143     0.14800
F1609       F  0.77070210  0.32357588  0.28547789    -0.12500
F1610       F  0.65633826  0.24814642  0.24609081    -0.13100
F1611       F  0.74405609  0.35390777  0.26585826    -0.15300
F1612       F  0.68495467  0.21782470  0.26427120    -0.13900
F1613       F  0.69943669  0.22637287  0.30508822    -0.13900
F1614       F  0.82112679  0.24947549  0.28013087    -0.15300
C1615       C  0.63378460  0.02572732  0.42331232     0.14800
C1616       C  0.64760035  0.05736046  0.41548815     0.01700
C1617       C  0.63717850  0.07928977  0.42148198     0.16700
C1618       C  0.61256588  0.06951495  0.43465604     0.26100
C1619       C  0.59774481  0.03739247  0.44221329    -0.40200
C1620       C  0.60913662  0.01580435  0.43657549     0.33100
C1621       C  0.67348931  0.06824149  0.40135832     0.01800
F1622       F  0.65112438  0.11047869  0.41462491    -0.12500
F1623       F  0.59630517  0.98492967  0.44371528    -0.13100
C1624       C  0.66863579  0.07895862  0.38447770     0.16700
C1625       C  0.69472055  0.09369324  0.37202307     0.26100
C1626       C  0.72619966  0.09803536  0.37629601    -0.40200
C1627       C  0.73026264  0.08529922  0.39279049     0.33100
C1628       C  0.70416080  0.07060253  0.40519268     0.14800
F1629       F  0.63877808  0.07591323  0.38027088    -0.12500
F1630       F  0.75971926  0.08751407  0.39710208    -0.13100
F1631       F  0.68953342  0.10511719  0.35620152    -0.15300
F1632       F  0.70939215  0.06017692  0.42134243    -0.13900
F1633       F  0.64363692  0.00414925  0.41781934    -0.13900
F1634       F  0.60305025  0.09156340  0.43973782    -0.15300
C1635       C  0.88145924  0.27846335  0.41198722     0.14800
C1636       C  0.89873375  0.31165350  0.40656862     0.01700
C1637       C  0.90403897  0.31957384  0.38816548     0.16700
C1638       C  0.89224872  0.29438514  0.37519463     0.26100
C1639       C  0.87479372  0.26077542  0.38051133    -0.40200
C1640       C  0.86949330  0.25320062  0.39914683     0.33100
C1641       C  0.91195239  0.33807621  0.42020765     0.01800
F1642       F  0.92115926  0.35176974  0.38281058    -0.12500
F1643       F  0.85290833  0.22135544  0.40511956    -0.13100
C1644       C  0.94143439  0.34608409  0.42930317     0.16700
C1645       C  0.95498113  0.37218856  0.44167939     0.26100
C1646       C  0.93910873  0.39077624  0.44516682    -0.40200
C1647       C  0.90858698  0.38147728  0.43649587     0.33100
C1648       C  0.89527488  0.35541260  0.42406741     0.14800
F1649       F  0.95748788  0.32901898  0.42586046    -0.12500
F1650       F  0.89191268  0.39802420  0.43961287    -0.13100
F1651       F  0.98388895  0.37942860  0.44999349    -0.15300
F1652       F  0.86620981  0.34722855  0.41563634    -0.13900
F1653       F  0.87621760  0.27054613  0.42979002    -0.13900
F1654       F  0.89830728  0.30303191  0.35751524    -0.15300
C1655       C  0.90414894  0.10756970  0.40480423     0.14800
C1656       C  0.91582917  0.08716180  0.39814293     0.01700
C1657       C  0.91476773  0.08120534  0.37951212     0.16700
C1658       C  0.90083687  0.09451513  0.36770860     0.26100
C1659       C  0.88800675  0.11424094  0.37442508    -0.40200
C1660       C  0.89053728  0.12110018  0.39315153     0.33100
C1661       C  0.92802934  0.07144858  0.41097106     0.01800
F1662       F  0.92639232  0.06176649  0.37284327    -0.12500
F1663       F  0.87970391  0.14081306  0.40039380    -0.13100
C1664       C  0.90560526  0.04664579  0.42269748     0.16700
C1665       C  0.91710413  0.03359920  0.43602619     0.26100
C1666       C  0.95140406  0.04544613  0.43796858    -0.40200
C1667       C  0.97377776  0.07004748  0.42592412     0.33100
C1668       C  0.96211695  0.08286458  0.41254253     0.14800
F1669       F  0.87249883  0.03540411  0.42135315    -0.12500
F1670       F  0.00698445  0.08161978  0.42696253    -0.13100
F1671       F  0.89468628  0.01007067  0.44732231    -0.15300
F1672       F  0.98417680  0.10710946  0.40143457    -0.13900
F1673       F  0.90584574  0.11431010  0.42274227    -0.13900
F1674       F  0.89928470  0.08743410  0.34983771    -0.15300
C1675       C  0.57552651  0.11986212  0.90925651     0.14800
C1676       C  0.58355282  0.15187446  0.91447087     0.01700
C1677       C  0.57867850  0.15827189  0.93234401     0.16700
C1678       C  0.56535381  0.13259117  0.94497391     0.26100
C1679       C  0.55671329  0.10009575  0.93980150    -0.40200
C1680       C  0.56223057  0.09410022  0.92178603     0.33100
C1681       C  0.59652700  0.17856010  0.90110146     0.01800
F1682       F  0.58644324  0.18934607  0.93745912    -0.12500
F1683       F  0.55494230  0.06338495  0.91621732    -0.13100
C1684       C  0.57452529  0.18410191  0.89079431     0.16700
C1685       C  0.58676777  0.20990331  0.87826172     0.26100
C1686       C  0.62132962  0.23045918  0.87586088    -0.40200
C1687       C  0.64326362  0.22421434  0.88608632     0.33100
C1688       C  0.63084546  0.19844681  0.89863833     0.14800
F1689       F  0.54117533  0.16465595  0.89303631    -0.12500
F1690       F  0.67674010  0.24367750  0.88446054    -0.13100
F1691       F  0.56476343  0.21471108  0.86853177    -0.15300
F1692       F  0.65227974  0.19312282  0.90859747    -0.13900
F1693       F  0.58044240  0.11359600  0.89196329    -0.13900
F1694       F  0.56021025  0.13947291  0.96209015    -0.15300
C1695       C  0.84197627  0.42741888  0.93591800     0.14800
C1696       C  0.84872165  0.42668392  0.91750532     0.01700
C1697       C  0.88148175  0.43920862  0.91170990     0.16700
C1698       C  0.90735056  0.45192114  0.92412926     0.26100
C1699       C  0.90095561  0.45247576  0.94276309    -0.40200
C1700       C  0.86789636  0.44021537  0.94850477     0.33100
C1701       C  0.82175919  0.41285769  0.90414833     0.01800
F1702       F  0.88847315  0.43944501  0.89388341    -0.12500
F1703       F  0.86054885  0.44063630  0.96620834    -0.13100
C1704       C  0.80313765  0.42843234  0.90090863     0.16700
C1705       C  0.77816700  0.41588009  0.88786119     0.26100
C1706       C  0.77127271  0.38726856  0.87790412    -0.40200
C1707       C  0.79059100  0.37213326  0.88100502     0.33100
C1708       C  0.81563361  0.38489293  0.89402257     0.14800
F1709       F  0.80948254  0.45610787  0.91024192    -0.12500
F1710       F  0.78547966  0.34511332  0.87141218    -0.13100
F1711       F  0.76040497  0.43147867  0.88528773    -0.15300
F1712       F  0.83379489  0.36978598  0.89689070    -0.13900
F1713       F  0.81022992  0.41529150  0.94169699    -0.13900
F1714       F  0.93957655  0.98573858  0.91781461    -0.15300
C1715       C  0.62781562  0.42446619  0.90533267     0.14800
C1716       C  0.59548409  0.40420763  0.91202512    -0.02300
C1717       C  0.57591184  0.37225573  0.90477142     0.16700
C1718       C  0.58786480  0.36111088  0.89069195     0.26100
C1719       C  0.62011481  0.38147338  0.88367279    -0.40200
C1720       C  0.64010533  0.41321482  0.89139241     0.33100
C1721       C  0.58088873  0.41718980  0.92534974     0.01800
F1722       F  0.54488829  0.35175911  0.91129196    -0.12500
F1723       F  0.67158783  0.43361372  0.88547288    -0.13100
C1724       C  0.55126952  0.41678420  0.92103114     0.16700
C1725       C  0.53730534  0.42941595  0.93302587     0.26100
C1726       C  0.55301002  0.44364012  0.94955339    -0.40200
C1727       C  0.58239332  0.44356641  0.95412534     0.33100
C1728       C  0.59623800  0.43042062  0.94209334     0.14800
F1729       F  0.53629756  0.40512206  0.90480995    -0.12500
F1730       F  0.59839972  0.45734670  0.96984483    -0.13100
F1731       F  0.01226551  0.43655746  0.92326761    -0.15300
F1732       F  0.62466910  0.43076227  0.94674949    -0.13900
F1733       F  0.64717333  0.45565067  0.91186588    -0.13900
F1734       F  0.56752356  0.33033925  0.88390856    -0.15300
C1735       C  0.49944157  0.26440877  0.79793421     0.14800
C1736       C  0.99561408  0.24712151  0.78039366     0.01700
C1737       C  0.52463216  0.25314393  0.77230722     0.16700
C1738       C  0.55565019  0.26918301  0.78103250     0.26100
C1739       C  0.55879745  0.28255748  0.79847435    -0.40200
C1740       C  0.53027991  0.28026378  0.80670061     0.33100
C1741       C  0.96270127  0.23046446  0.77109694     0.01800
F1742       F  0.52237662  0.24032862  0.75555878    -0.12500
F1743       F  0.53213086  0.29346446  0.82330374    -0.13100
C1744       C  0.95280574  0.24882176  0.76026628     0.16700
C1745       C  0.92167551  0.23323365  0.75175696     0.26100
C1746       C  0.89990746  0.19894612  0.75375818    -0.40200
C1747       C  0.90928544  0.18073014  0.76499759     0.33100
C1748       C  0.94046224  0.19627515  0.77350641     0.14800
F1749       F  0.97303574  0.28203453  0.75823386    -0.12500
F1750       F  0.88862117  0.14772127  0.76739648    -0.13100
F1751       F  0.91252642  0.25173689  0.74172898    -0.15300
F1752       F  0.94925637  0.17777082  0.78381020    -0.13900
F1753       F  0.96884323  0.22998758  0.80916611    -0.13900
F1754       F  0.58231801  0.27063288  0.77262702    -0.15300
C1755       C  0.72295106  0.47843794  0.77436215     0.14800
C1756       C  0.74694859  0.00533796  0.78156892     0.01700
C1757       C  0.76859277  0.49836775  0.79568132     0.16700
C1758       C  0.75318386  0.46741959  0.80413737     0.26100
C1759       C  0.72240688  0.44165573  0.79786487    -0.40200
C1760       C  0.70763794  0.44721300  0.78272629     0.33100
C1761       C  0.76479261  0.03854794  0.77307158     0.01800
F1762       F  0.74499714  0.02963911  0.80971051    -0.12500
F1763       F  0.67781504  0.42290233  0.77651926    -0.13100
C1764       C  0.75015927  0.05863685  0.77220821     0.16700
C1765       C  0.76703568  0.08985651  0.76397162     0.26100
C1766       C  0.79865961  0.10130509  0.75637786    -0.40200
C1767       C  0.81340099  0.08137967  0.75745144     0.33100
C1768       C  0.79676487  0.05040611  0.76589533     0.14800
F1769       F  0.71893082  0.04737267  0.77863104    -0.12500
F1770       F  0.84340626  0.09141455  0.74967327    -0.13100
F1771       F  0.75133650  0.10763233  0.76213795    -0.15300
F1772       F  0.81177551  0.03183484  0.76698828    -0.13900
F1773       F  0.74748215  0.97895540  0.75386973    -0.13900
F1774       F  0.76845548  0.46256754  0.81849138    -0.15300
C1775       C  0.73414812  0.25781793  0.77005746     0.14800
C1776       C  0.76243688  0.25924801  0.77788698     0.01700
C1777       C  0.77455643  0.27615787  0.79424687     0.16700
C1778       C  0.75811610  0.29045068  0.80302273     0.26100
C1779       C  0.72896075  0.28809534  0.79564254    -0.40200
C1780       C  0.71752241  0.27215833  0.77884734     0.33100
C1781       C  0.77842392  0.24167248  0.76960789     0.01800
F1782       F  0.80226917  0.27852344  0.80183763    -0.12500
F1783       F  0.68943143  0.26904823  0.77136657    -0.13100
C1784       C  0.79921780  0.25483761  0.75451111     0.16700
C1785       C  0.81396785  0.23786616  0.74673447     0.26100
C1786       C  0.80702362  0.20660426  0.75343478    -0.40200
C1787       C  0.78793077  0.19467797  0.76929421     0.33100
C1788       C  0.77371223  0.21200361  0.77724591     0.14800
F1789       F  0.80532979  0.28420747  0.74735023    -0.12500
F1790       F  0.78201327  0.16575217  0.77686235    -0.13100
F1791       F  0.83495001  0.25195221  0.73255743    -0.15300
F1792       F  0.75457536  0.19937577  0.79221968    -0.13900
F1793       F  0.72196668  0.24147625  0.75422796    -0.13900
F1794       F  0.77083753  0.30663828  0.81884185    -0.15300
C1795       C  0.49876045  0.22793047  0.67154044     0.14800
C1796       C  0.99297233  0.23739318  0.68668210     0.01700
C1797       C  0.52072621  0.27238665  0.69361040     0.16700
C1798       C  0.55115437  0.28797386  0.68443216     0.26100
C1799       C  0.55581326  0.27338991  0.66892034    -0.40200
C1800       C  0.52947677  0.24304861  0.66267028     0.33100
C1801       C  0.95962357  0.22108870  0.69543792     0.01800
F1802       F  0.51751365  0.28632958  0.70902407    -0.12500
F1803       F  0.53309171  0.22863665  0.64755343    -0.13100
C1804       C  0.94775094  0.19114618  0.70503446     0.16700
C1805       C  0.91707296  0.17703961  0.71403639     0.26100
C1806       C  0.89777381  0.19260336  0.71357850    -0.40200
C1807       C  0.90956572  0.22233813  0.70395585     0.33100
C1808       C  0.93993759  0.23623287  0.69479268     0.14800
F1809       F  0.96645452  0.17628530  0.70629474    -0.12500
F1810       F  0.89284587  0.23923739  0.70447544    -0.13100
F1811       F  0.90666013  0.14872926  0.72368096    -0.15300
F1812       F  0.95040216  0.26488163  0.68547140    -0.13900
F1813       F  0.97843948  0.18913331  0.66873842    -0.13900
F1814       F  0.57638757  0.31690639  0.69097736    -0.15300
C1815       C  0.79661235  0.05534445  0.69706819     0.14800
C1816       C  0.76239587  0.03362717  0.69994041     0.01700
C1817       C  0.74457749  0.04460205  0.71050315     0.16700
C1818       C  0.76069950  0.07633969  0.71818183     0.26100
C1819       C  0.79522305  0.09719609  0.71619513    -0.40200
C1820       C  0.81288535  0.08675580  0.70521200     0.33100
C1821       C  0.74525371  0.99996361  0.69158588     0.01800
F1822       F  0.71161891  0.02435924  0.71367871    -0.12500
F1823       F  0.84603806  0.10674835  0.70262675    -0.13100
C1824       C  0.75849337  0.47653886  0.69397517     0.16700
C1825       C  0.74368845  0.44575446  0.68511116     0.26100
C1826       C  0.71683114  0.43663095  0.67319875    -0.40200
C1827       C  0.70484545  0.45884503  0.67064596     0.33100
C1828       C  0.71994703  0.48970907  0.67929653     0.14800
F1829       F  0.78381416  0.48425474  0.70568948    -0.12500
F1830       F  0.67933272  0.45141101  0.65911252    -0.13100
F1831       F  0.75547762  0.42479420  0.68832854    -0.15300
F1832       F  0.70516489  0.01081023  0.67748468    -0.13900
F1833       F  0.81423773  0.04624232  0.68621355    -0.13900
F1834       F  0.74243352  0.08688717  0.72734813    -0.15300
C1835       C  0.74498832  0.19707474  0.71097287     0.14800
C1836       C  0.75883916  0.21806895  0.69596720     0.01700
C1837       C  0.78890542  0.22274775  0.68873582     0.16700
C1838       C  0.80628109  0.20920491  0.69727790     0.26100
C1839       C  0.79408176  0.19097884  0.71332389    -0.40200
C1840       C  0.76208953  0.18303037  0.71929581     0.33100
C1841       C  0.74284195  0.23605697  0.68813303     0.01800
F1842       F  0.80178879  0.24104161  0.67352261    -0.12500
F1843       F  0.74774950  0.16232906  0.73354235    -0.13100
C1844       C  0.76103668  0.27078692  0.68649406     0.16700
C1845       C  0.74718912  0.28795542  0.67804371     0.26100
C1846       C  0.71452176  0.27079542  0.67111424    -0.40200
C1847       C  0.69574445  0.23601964  0.67363560     0.33100
C1848       C  0.70983465  0.21890945  0.68196885     0.14800
F1849       F  0.79244207  0.28820748  0.69313397    -0.12500
F1850       F  0.66390701  0.21819779  0.66767399    -0.13100
F1851       F  0.76608685  0.32143036  0.67655605    -0.15300
F1852       F  0.69152312  0.18536929  0.68342382    -0.13900
F1853       F  0.71568534  0.19139136  0.71812350    -0.13900
F1854       F  0.83553007  0.21501662  0.69013527    -0.15300
C1855       C  0.57995818  0.12393070  0.55358835     0.14800
C1856       C  0.58560676  0.15528299  0.54845666     0.01700
C1857       C  0.57765354  0.16025363  0.53087185     0.16700
C1858       C  0.56323131  0.13377346  0.51868229     0.26100
C1859       C  0.55667723  0.10202832  0.52398016    -0.40200
C1860       C  0.56562743  0.09752118  0.54150514     0.33100
C1861       C  0.59842318  0.18227503  0.56182395     0.01800
F1862       F  0.58270015  0.19043910  0.52576352    -0.12500
F1863       F  0.56057085  0.06750754  0.54701850    -0.13100
C1864       C  0.62961855  0.21072617  0.55944067     0.16700
C1865       C  0.64166395  0.23611057  0.57227514     0.26100
C1866       C  0.62269524  0.23319749  0.58772745    -0.40200
C1867       C  0.59160505  0.20447189  0.59014835     0.33100
C1868       C  0.57951696  0.17925716  0.57724215     0.14800
F1869       F  0.64857827  0.21360740  0.54484243    -0.12500
F1870       F  0.57236542  0.20136005  0.60464814    -0.13100
F1871       F  0.67213211  0.26324288  0.56977716    -0.15300
F1872       F  0.54899840  0.15210978  0.57957501    -0.13900
F1873       F  0.58825123  0.11889743  0.57039999    -0.13900
F1874       F  0.05191310  0.14024084  0.50082526    -0.15300
C1875       C  0.79234699  0.42044050  0.56425776     0.14800
C1876       C  0.82174297  0.41952182  0.56667435     0.01700
C1877       C  0.82671991  0.40660224  0.58278881     0.16700
C1878       C  0.80177877  0.39331527  0.59600755     0.26100
C1879       C  0.77160670  0.39284335  0.59320738    -0.40200
C1880       C  0.76757645  0.40740301  0.57740259     0.33100
C1881       C  0.84724879  0.43242183  0.55236816     0.01800
F1882       F  0.85525619  0.40583788  0.58540393    -0.12500
F1883       F  0.73946903  0.40892750  0.57460700    -0.13100
C1884       C  0.87783885  0.46113318  0.55546563     0.16700
C1885       C  0.90215812  0.47344819  0.54206285     0.26100
C1886       C  0.89639293  0.45711864  0.52529711    -0.40200
C1887       C  0.86528205  0.42887286  0.52197409     0.33100
C1888       C  0.84085073  0.41659277  0.53546307     0.14800
F1889       F  0.88405268  0.47738268  0.57147773    -0.12500
F1890       F  0.85908798  0.41231355  0.50606518    -0.13100
F1891       F  0.93504395  0.00492612  0.54810688    -0.15300
F1892       F  0.81129809  0.38870032  0.53225455    -0.13900
F1893       F  0.78767115  0.43403397  0.54910909    -0.13900
F1894       F  0.80648803  0.37952331  0.61104945    -0.15300
C1895       C  0.61872191  0.40999755  0.56183169     0.14800
C1896       C  0.59159007  0.41382745  0.56650859     0.01700
C1897       C  0.57778192  0.40459132  0.58390068     0.16700
C1898       C  0.59039610  0.39084506  0.59626109     0.26100
C1899       C  0.61694854  0.38598175  0.59136316    -0.40200
C1900       C  0.63124297  0.39619697  0.57406301     0.33100
C1901       C  0.57750579  0.42694638  0.55305669     0.01800
F1902       F  0.55142933  0.40797603  0.58871821    -0.12500
F1903       F  0.65776461  0.39328719  0.56897487    -0.13100
C1904       C  0.56535179  0.41055999  0.53647088     0.16700
C1905       C  0.55208331  0.42288090  0.52369407     0.26100
C1906       C  0.55046376  0.45169404  0.52735749    -0.40200
C1907       C  0.56321005  0.46836586  0.54388681     0.33100
C1908       C  0.57661201  0.45610121  0.55657941     0.14800
F1909       F  0.56566416  0.38213086  0.53282085    -0.12500
F1910       F  0.56333289  0.49698401  0.54766314    -0.13100
F1911       F  0.53989950  0.40601600  0.50800282    -0.15300
F1912       F  0.58931249  0.47306422  0.57219911    -0.13900
F1913       F  0.63335955  0.41996654  0.54539294    -0.13900
F1914       F  0.57591548  0.38133022  0.61275325    -0.15300
Zn1915     Zn  0.64014947  0.85289539  0.64264057     1.49700
Zn1916     Zn  0.66877227  0.83651449  0.60770999     1.49400
Zn1917     Zn  0.71088258  0.85451981  0.64376695     1.49100
Zn1918     Zn  0.64176218  0.78498697  0.63974971     1.49500
O1919       O  0.66544965  0.83228853  0.63376837    -1.82000
O1920       O  0.62213761  0.86833045  0.62188264    -0.72700
O1921       O  0.71483860  0.86535492  0.59947929    -0.72500
O1922       O  0.71744407  0.89208059  0.66053979    -0.72000
O1923       O  0.64373468  0.85701974  0.59810653    -0.72700
O1924       O  0.67036335  0.89320427  0.65761229    -0.72300
O1925       O  0.74605573  0.87659689  0.62395483    -0.72900
O1926       O  0.67213165  0.77320660  0.65339303    -0.72300
O1927       O  0.65129179  0.79316714  0.59524817    -0.73000
O1928       O  0.71953857  0.82075861  0.65657569    -0.72400
O1929       O  0.62720810  0.75641104  0.61720407    -0.72900
O1930       O  0.60088189  0.77298259  0.65487910    -0.72800
O1931       O  0.60094638  0.82052150  0.65799277    -0.72600
C1932       C  0.62658919  0.86860153  0.60487972     0.79200
C1933       C  0.74311226  0.87929805  0.60701669     0.79700
C1934       C  0.69983642  0.90554620  0.66379680     0.78700
C1935       C  0.70209592  0.78941773  0.65895313     0.79000
C1936       C  0.63415187  0.76334938  0.60056115     0.80200
C1937       C  0.58801856  0.78954370  0.66114644     0.79200
C1938       C  0.83205474  0.66213400  0.71614315     0.47500
H1939       H  0.83208751  0.65998197  0.70125779    -0.01500
C1940       C  0.83206808  0.66650599  0.75135249     0.47600
H1941       H  0.83234796  0.66832600  0.76626402    -0.01500
C1942       C  0.81349084  0.62835124  0.72562185    -0.15200
C1943       C  0.86715719  0.67991942  0.72470725    -0.14900
C1944       C  0.81464748  0.68078276  0.72311601    -0.15300
C1945       C  0.81356851  0.63050835  0.74409627    -0.15300
C1946       C  0.86707951  0.68216250  0.74317877    -0.14800
C1947       C  0.81606781  0.68451522  0.74166801    -0.15200
Zn1948     Zn  0.62504215  0.80956556  0.84499070     1.49700
Zn1949     Zn  0.66753132  0.83417354  0.80775008     1.49400
Zn1950     Zn  0.69179867  0.87754772  0.84454740     1.49100
Zn1951     Zn  0.69452872  0.81178882  0.84185721     1.49500
O1952       O  0.66950453  0.83310619  0.83445786    -1.82000
O1953       O  0.59086335  0.79611946  0.82546780    -0.72700
O1954       O  0.68919792  0.88281772  0.79940905    -0.72500
O1955       O  0.66396637  0.88521470  0.86235844    -0.72000
O1956       O  0.61830833  0.80967195  0.79945341    -0.72700
O1957       O  0.61730296  0.83693879  0.86364529    -0.72300
O1958       O  0.70475000  0.91080864  0.82520833    -0.72900
O1959       O  0.73246371  0.83998933  0.85840910    -0.72300
O1960       O  0.69384101  0.81336357  0.79630291    -0.73000
O1961       O  0.73257318  0.88748167  0.85817614    -0.72400
O1962       O  0.71386441  0.80143911  0.82063023    -0.72900
O1963       O  0.66573734  0.76982065  0.85513835    -0.72800
O1964       O  0.61745874  0.76830044  0.85772571    -0.72600
C1965       C  0.59091179  0.79674215  0.80827747     0.79200
C1966       C  0.70260591  0.91023269  0.80811464     0.79700
C1967       C  0.63527315  0.86674837  0.86901179     0.78700
C1968       C  0.74497985  0.87001706  0.86335391     0.79000
C1969       C  0.71174212  0.80269909  0.80357707     0.80200
C1970       C  0.63598818  0.75596675  0.86086432     0.79200
Zn1971     Zn  0.85418882  0.71399401  0.32857390     1.49700
Zn1972     Zn  0.85676087  0.64641539  0.32371019     1.49400
Zn1973     Zn  0.83235360  0.66129708  0.36055697     1.49100
Zn1974     Zn  0.78626443  0.64433883  0.32685556     1.49500
O1975       O  0.83258180  0.66665449  0.33465170    -1.82000
O1976       O  0.89640806  0.72814146  0.31420774    -0.72700
O1977       O  0.87750492  0.63053888  0.34275577    -0.72500
O1978       O  0.84934761  0.70422203  0.37299540    -0.72000
O1979       O  0.89577432  0.68079151  0.30916546    -0.72700
O1980       O  0.86706361  0.74203601  0.35133584    -0.72300
O1981       O  0.86210373  0.64458155  0.36801422    -0.72900
O1982       O  0.75405211  0.62203334  0.34743138    -0.72300
O1983       O  0.82530751  0.60692815  0.30827719    -0.73000
O1984       O  0.78731213  0.63067563  0.37061348    -0.72400
O1985       O  0.77790650  0.60759076  0.30986128    -0.72900
O1986       O  0.77474600  0.67629197  0.31500000    -0.72800
O1987       O  0.82277865  0.72397980  0.31438375    -0.72600
C1988       C  0.90950971  0.71220181  0.30738896     0.79200
C1989       C  0.87813521  0.63298955  0.35990579     0.79700
C1990       C  0.86314420  0.73428576  0.36801993     0.78700
C1991       C  0.75827262  0.61780297  0.36397913     0.79000
C1992       C  0.79462615  0.59451130  0.30423175     0.80200
C1993       C  0.79182639  0.70685981  0.31076809     0.79200
C1994       C  0.66691550  0.83355113  0.21743928     0.47500
H1995       H  0.66767043  0.83273442  0.20247737    -0.01500
C1996       C  0.66494220  0.83452279  0.25265506     0.47600
H1997       H  0.66360201  0.83446649  0.26762005    -0.01500
C1998       C  0.63135199  0.81616440  0.22542341    -0.15200
C1999       C  0.68416365  0.81649568  0.22658029    -0.14900
C2000       C  0.68446103  0.86899799  0.22545318    -0.15300
C2001       C  0.63061743  0.81676481  0.24392383    -0.15300
C2002       C  0.68320160  0.81715851  0.24511452    -0.14800
C2003       C  0.68175304  0.86923825  0.24406499    -0.15200
Zn2004     Zn  0.85862922  0.64579419  0.14050663     1.49700
Zn2005     Zn  0.83411211  0.67127828  0.10787433     1.49400
Zn2006     Zn  0.78882223  0.64480797  0.14300268     1.49100
Zn2007     Zn  0.85741326  0.71409533  0.14379891     1.49500
O2008       O  0.83472421  0.66895855  0.13400446    -1.82000
O2009       O  0.87528958  0.63250251  0.11848725    -0.72700
O2010       O  0.78838285  0.65118995  0.09830974    -0.72500
O2011       O  0.78015505  0.60293731  0.15609813    -0.72000
O2012       O  0.85702304  0.65005717  0.09586012    -0.72700
O2013       O  0.82846789  0.60410493  0.15445852    -0.72300
O2014       O  0.75609680  0.63235432  0.12243822    -0.72900
O2015       O  0.82587459  0.72192370  0.15896385    -0.72300
O2016       O  0.85622864  0.71755296  0.09937746    -0.73000
O2017       O  0.77875429  0.67368666  0.15933068    -0.72400
O2018       O  0.87369882  0.74870194  0.12398775    -0.72900
O2019       O  0.89740217  0.72225442  0.15845577    -0.72800
O2020       O  0.89899851  0.67554537  0.15551243    -0.72600
C2021       C  0.87272851  0.63610276  0.10162724     0.79200
C2022       C  0.75974955  0.63723505  0.10547228     0.79700
C2023       C  0.79816753  0.59000289  0.15948564     0.78700
C2024       C  0.79559520  0.70418969  0.16376701     0.79000
C2025       C  0.87055457  0.74577910  0.10691406     0.80200
C2026       C  0.91130690  0.70506464  0.16148688     0.79200
Zn2027     Zn  0.95488293  0.97878215  0.99258435     1.49700
Zn2028     Zn  0.52630889  0.55245972  0.99083066     1.49400
Zn2029     Zn  0.52399425  0.97855862  0.99414416     1.49100
Zn2030     Zn  0.50412563  0.49978547  0.95968556     1.49500
O2031       O  0.50316266  0.50503114  0.98524285    -1.82000
O2032       O  0.94954728  0.51488728  0.00741617    -0.72700
O2033       O  0.56279789  0.56338112  0.00846001    -0.72500
O2034       O  0.99266933  0.94204882  0.01182293    -0.72000
O2035       O  0.99694706  0.56256728  0.00462222    -0.72700
O2036       O  0.94484460  0.94172883  0.00987231    -0.72300
O2037       O  0.56199732  0.51578708  0.01234673    -0.72900
O2038       O  0.52453651  0.97388445  0.95004920    -0.72300
O2039       O  0.54542588  0.58091371  0.96852858    -0.73000
O2040       O  0.54124967  0.95984410  0.97474032    -0.72400
O2041       O  0.53031914  0.54255505  0.94732032    -0.72900
O2042       O  0.95883812  0.97716001  0.94851814    -0.72800
O2043       O  0.92329432  0.96162570  0.97131211    -0.72600
C2044       C  0.96753621  0.54571934  0.01076966     0.79200
C2045       C  0.57353648  0.54624301  0.01623077     0.79700
C2046       C  0.96261236  0.93070715  0.01665840     0.78700
C2047       C  0.53913789  0.96021130  0.95759100     0.79000
C2048       C  0.54487834  0.57274066  0.95206297     0.80200
C2049       C  0.92932619  0.96375152  0.95443471     0.79200
Zn2050     Zn  0.49588273  0.99912239  0.50987567     1.49700
Zn2051     Zn  0.51454774  0.97024735  0.47660152     1.49400
Zn2052     Zn  0.95178885  0.97493897  0.47705247     1.49100
Zn2053     Zn  0.52481682  0.54518859  0.47340458     1.49500
O2054       O  0.49532153  0.99744878  0.48398021    -1.82000
O2055       O  0.51477292  0.97351848  0.52077709    -0.72700
O2056       O  0.98674798  0.93059559  0.46389048    -0.72500
O2057       O  0.92043824  0.96415611  0.49859003    -0.72000
O2058       O  0.52989830  0.95363447  0.49785010    -0.72700
O2059       O  0.95615385  0.98322515  0.52138290    -0.72300
O2060       O  0.93994526  0.93237507  0.46402147    -0.72900
O2061       O  0.99702561  0.55426701  0.45712112    -0.72300
O2062       O  0.55506539  0.49742973  0.45880567    -0.73000
O2063       O  0.94722475  0.50902897  0.45683088    -0.72400
O2064       O  0.56228458  0.54823539  0.45837100    -0.72900
O2065       O  0.54347109  0.58071954  0.49299087    -0.72800
O2066       O  0.52478456  0.54926213  0.51745324    -0.72600
C2067       C  0.52807985  0.95740340  0.51476767     0.79200
C2068       C  0.95636295  0.91830434  0.45947522     0.79700
C2069       C  0.92659820  0.96937744  0.51543908     0.78700
C2070       C  0.96738300  0.53826125  0.45118167     0.79000
C2071       C  0.57055376  0.52727635  0.45317182     0.80200
C2072       C  0.54106843  0.57754863  0.51010289     0.79200
C2073       C  0.63353294  0.55673070  0.05365667     0.14800
C2074       C  0.64772425  0.59052414  0.05769806     0.01700
C2075       C  0.63715810  0.60984398  0.04841688     0.16700
C2076       C  0.61298502  0.59558855  0.03495033     0.26100
C2077       C  0.59921940  0.56170292  0.03046409    -0.40200
C2078       C  0.60949431  0.54237901  0.04023106     0.33100
C2079       C  0.67538227  0.60570925  0.07062753     0.01800
F2080       F  0.65035498  0.64253692  0.05238182    -0.12500
F2081       F  0.59648390  0.50951252  0.03685044    -0.13100
C2082       C  0.70728531  0.62862826  0.06447526     0.16700
C2083       C  0.73461205  0.63928344  0.07587642     0.26100
C2084       C  0.73044717  0.62709442  0.09372131    -0.40200
C2085       C  0.69808315  0.60521868  0.10005616     0.33100
C2086       C  0.67080280  0.59461448  0.08856127     0.14800
F2087       F  0.71216771  0.63947968  0.04711542    -0.12500
F2088       F  0.69280883  0.59313690  0.11715275    -0.13100
F2089       F  0.76513924  0.66124297  0.06927089    -0.15300
F2090       F  0.63991256  0.57281761  0.09477397    -0.13900
F2091       F  0.64381802  0.53777722  0.06236176    -0.13900
F2092       F  0.60328226  0.61509847  0.02634184    -0.15300
C2093       C  0.90566076  0.87301490  0.05314282     0.14800
C2094       C  0.92298011  0.85695468  0.05848585     0.01700
C2095       C  0.95315134  0.86501881  0.05014749     0.16700
C2096       C  0.96585500  0.88869918  0.03645318     0.26100
C2097       C  0.94852303  0.90485510  0.03084866    -0.40200
C2098       C  0.91831662  0.89687127  0.03948026     0.33100
C2099       C  0.90840655  0.82982486  0.07171882     0.01800
F2100       F  0.96980807  0.84910967  0.05489605    -0.12500
F2101       F  0.90111425  0.91231399  0.03492268    -0.13100
C2102       C  0.87950476  0.80026111  0.06719570     0.16700
C2103       C  0.86698072  0.77320466  0.07884354     0.26100
C2104       C  0.88310954  0.77534327  0.09531648    -0.40200
C2105       C  0.91160501  0.80536078  0.10007586     0.33100
C2106       C  0.92430740  0.83240105  0.08825472     0.14800
F2107       F  0.86409162  0.79723249  0.05114742    -0.12500
F2108       F  0.92792765  0.80807770  0.11574800    -0.13100
F2109       F  0.83903781  0.74483947  0.07394533    -0.15300
F2110       F  0.95236179  0.86093808  0.09277899    -0.13900
F2111       F  0.87646592  0.86554224  0.06120459    -0.13900
F2112       F  0.99489683  0.89529623  0.02853412    -0.15300
C2113       C  0.91200729  0.58949344  0.08045126     0.14800
C2114       C  0.91668431  0.60109697  0.06262575     0.01700
C2115       C  0.90783776  0.62465248  0.05771272     0.16700
C2116       C  0.89384456  0.63621281  0.07040931     0.26100
C2117       C  0.88840322  0.62427776  0.08834342    -0.40200
C2118       C  0.89798560  0.60098042  0.09325860     0.33100
C2119       C  0.92984325  0.58790557  0.04890958     0.01800
F2120       F  0.91275773  0.63641073  0.04054281    -0.12500
F2121       F  0.89309219  0.58866742  0.11029740    -0.13100
C2122       C  0.90793581  0.56240996  0.03738744     0.16700
C2123       C  0.92018991  0.54934137  0.02450717     0.26100
C2124       C  0.95463753  0.56181533  0.02292382    -0.40200
C2125       C  0.97658080  0.58814937  0.03420046     0.33100
C2126       C  0.96418583  0.60095499  0.04715998     0.14800
F2127       F  0.87462298  0.54988240  0.03883615    -0.12500
F2128       F  0.00994132  0.60055085  0.03325974    -0.13100
F2129       F  0.89837411  0.52451461  0.01359953    -0.15300
F2130       F  0.98563719  0.62582617  0.05816490    -0.13900
F2131       F  0.92050217  0.56659347  0.08533365    -0.13900
F2132       F  0.88596572  0.65935570  0.06509972    -0.15300
C2133       C  0.98168834  0.76137847  0.19294498     0.14800
C2134       C  0.50550967  0.75119621  0.18767912     0.01700
C2135       C  0.49744775  0.72573886  0.17505242     0.16700
C2136       C  0.96628560  0.70963196  0.16861678     0.26100
C2137       C  0.94300148  0.72010983  0.17170072    -0.40200
C2138       C  0.95102073  0.74609128  0.18403071     0.33100
C2139       C  0.53847125  0.76767446  0.19671177     0.01800
F2140       F  0.51989387  0.71625589  0.17074603    -0.12500
F2141       F  0.92906705  0.75655228  0.18761061    -0.13100
C2142       C  0.54940283  0.74897700  0.20647625     0.16700
C2143       C  0.58029819  0.76470972  0.21517717     0.26100
C2144       C  0.60062953  0.79937303  0.21439497    -0.40200
C2145       C  0.58949966  0.81805065  0.20489566     0.33100
C2146       C  0.55896667  0.80234943  0.19589663     0.14800
F2147       F  0.52962350  0.71561595  0.20813698    -0.12500
F2148       F  0.60685536  0.85162319  0.20550936    -0.13100
F2149       F  0.58994334  0.74624020  0.22489443    -0.15300
F2150       F  0.54921065  0.82111979  0.18655940    -0.13900
F2151       F  0.98842991  0.78590833  0.20502057    -0.13900
F2152       F  0.95993253  0.68524911  0.15651072    -0.15300
C2153       C  0.73809568  0.51316977  0.18626861     0.14800
C2154       C  0.75146436  0.99626075  0.18857333     0.01700
C2155       C  0.78642155  0.50879734  0.17858780     0.16700
C2156       C  0.80053921  0.53958560  0.16988924     0.26100
C2157       C  0.78354513  0.55766165  0.16921803    -0.40200
C2158       C  0.75215812  0.54405390  0.17765835     0.33100
C2159       C  0.73544806  0.96296289  0.19724156     0.01800
F2160       F  0.80308677  0.49175110  0.17867741    -0.12500
F2161       F  0.73499356  0.56060379  0.17771883    -0.13100
C2162       C  0.70612204  0.93654448  0.19006435     0.16700
C2163       C  0.69078724  0.90524271  0.19834852     0.26100
C2164       C  0.70388325  0.89996924  0.21435038    -0.40200
C2165       C  0.73483964  0.92580228  0.22056505     0.33100
C2166       C  0.75002772  0.95709130  0.21235162     0.14800
F2167       F  0.69235004  0.94106044  0.17494097    -0.12500
F2168       F  0.75021809  0.92094956  0.23484996    -0.13100
F2169       F  0.66291712  0.88046434  0.19076213    -0.15300
F2170       F  0.77855697  0.98199334  0.21949777    -0.13900
F2171       F  0.70408072  0.00218580  0.19478918    -0.13900
F2172       F  0.83055161  0.55118877  0.16177206    -0.15300
C2173       C  0.74804119  0.79292956  0.21214048     0.14800
C2174       C  0.73015171  0.76731344  0.19964914     0.01700
C2175       C  0.69734548  0.75904856  0.19531990     0.16700
C2176       C  0.68258087  0.77559022  0.20368889     0.26100
C2177       C  0.70050800  0.80092846  0.21632741    -0.40200
C2178       C  0.73376411  0.81019080  0.21991212     0.33100
C2179       C  0.74657118  0.75062936  0.19064219     0.01800
F2180       F  0.67976967  0.73530205  0.18281781    -0.12500
F2181       F  0.75275675  0.83643409  0.23075808    -0.13100
C2182       C  0.73234354  0.71590597  0.19098138     0.16700
C2183       C  0.74840728  0.70068898  0.18259174     0.26100
C2184       C  0.77929401  0.71995417  0.17385307    -0.40200
C2185       C  0.79356888  0.75476329  0.17378779     0.33100
C2186       C  0.77726885  0.76977658  0.18189847     0.14800
F2187       F  0.70313350  0.69670559  0.19969738    -0.12500
F2188       F  0.82293541  0.77452878  0.16533582    -0.13100
F2189       F  0.73376174  0.66711157  0.18316504    -0.15300
F2190       F  0.79123621  0.80324861  0.18079135    -0.13900
F2191       F  0.77941851  0.80109235  0.21699069    -0.13900
F2192       F  0.65062369  0.76646527  0.19967066    -0.15300
C2193       C  0.77750587  0.51647341  0.27884437     0.14800
C2194       C  0.73772771  0.99713360  0.27797602     0.01700
C2195       C  0.72524774  0.51498247  0.28382413     0.16700
C2196       C  0.74224155  0.54641849  0.29171263     0.26100
C2197       C  0.77720945  0.56309500  0.29370345    -0.40200
C2198       C  0.79465732  0.54788553  0.28683400     0.33100
C2199       C  0.71889624  0.96285055  0.27090649     0.01800
F2200       F  0.68760754  0.99912083  0.28220284    -0.12500
F2201       F  0.82827444  0.56299995  0.28809360    -0.13100
C2202       C  0.72270576  0.93762900  0.27894905     0.16700
C2203       C  0.70861579  0.90627726  0.27101872     0.26100
C2204       C  0.69057150  0.89966472  0.25483677    -0.40200
C2205       C  0.68277374  0.92345004  0.24835362     0.33100
C2206       C  0.69768075  0.95514641  0.25595986     0.14800
F2207       F  0.74077126  0.94363604  0.29431931    -0.12500
F2208       F  0.66162637  0.91638361  0.23423880    -0.13100
F2209       F  0.71374142  0.88303248  0.27893673    -0.15300
F2210       F  0.69268356  0.97868870  0.24816374    -0.13900
F2211       F  0.79495385  0.50239036  0.27241550    -0.13900
F2212       F  0.72405584  0.55980379  0.29798139    -0.15300
C2213       C  0.54794954  0.80192940  0.26192632     0.14800
C2214       C  0.53912966  0.77527117  0.27379856     0.01700
C2215       C  0.56154342  0.76371223  0.27669119     0.16700
C2216       C  0.59167815  0.77770005  0.26725101     0.26100
C2217       C  0.59971920  0.80332074  0.25477481    -0.40200
C2218       C  0.57817141  0.81607803  0.25265237     0.33100
C2219       C  0.50597783  0.75868386  0.28250276     0.01800
F2220       F  0.55412586  0.73879007  0.28860443    -0.12500
F2221       F  0.58654172  0.84247159  0.24171432    -0.13100
C2222       C  0.98551908  0.72986318  0.27959360     0.16700
C2223       C  0.95375040  0.71329954  0.28724290     0.26100
C2224       C  0.94213420  0.73054384  0.29788653    -0.40200
C2225       C  0.96308151  0.76508243  0.30028028     0.33100
C2226       C  0.49609239  0.77651177  0.29373910     0.14800
F2227       F  0.99562945  0.71248319  0.26923047    -0.12500
F2228       F  0.95326243  0.78285375  0.31051319    -0.13100
F2229       F  0.93438021  0.68026797  0.28413111    -0.15300
F2230       F  0.51750257  0.80893582  0.29753031    -0.13900
F2231       F  0.52683572  0.81363740  0.25892164    -0.13900
F2232       F  0.61261207  0.76569121  0.26995149    -0.15300
C2233       C  0.72753561  0.73136027  0.29912717     0.14800
C2234       C  0.74336593  0.75421934  0.28508492     0.01700
C2235       C  0.77521087  0.76140040  0.27947736     0.16700
C2236       C  0.79102657  0.74602257  0.28781782     0.26100
C2237       C  0.77511036  0.72294501  0.30178691    -0.40200
C2238       C  0.74317127  0.71569567  0.30734368     0.33100
C2239       C  0.72651333  0.77017865  0.27603898     0.01800
F2240       F  0.79067367  0.78279352  0.26563275    -0.12500
F2241       F  0.72750014  0.69418166  0.32111418    -0.13100
C2242       C  0.74082074  0.80485052  0.27627300     0.16700
C2243       C  0.72609586  0.82006600  0.26671648     0.26100
C2244       C  0.69672652  0.80088162  0.25686978    -0.40200
C2245       C  0.68208225  0.76616581  0.25687414     0.33100
C2246       C  0.69681797  0.75091222  0.26642664     0.14800
F2247       F  0.76950417  0.82402109  0.28544186    -0.12500
F2248       F  0.65410291  0.74715334  0.24712720    -0.13100
F2249       F  0.74217915  0.85362044  0.26576158    -0.15300
F2250       F  0.68288178  0.71741857  0.26569164    -0.13900
F2251       F  0.69717517  0.72471261  0.30510323    -0.13900
F2252       F  0.82147942  0.75292394  0.28187387    -0.15300
C2253       C  0.63158961  0.52422640  0.41993958     0.14800
C2254       C  0.64828944  0.55690727  0.41352017     0.01700
C2255       C  0.64021686  0.58001489  0.42040172     0.16700
C2256       C  0.61550898  0.57063938  0.43349523     0.26100
C2257       C  0.59811043  0.53765976  0.43992496    -0.40200
C2258       C  0.60662039  0.51456623  0.43298649     0.33100
C2259       C  0.67505762  0.56772621  0.40005247     0.01800
F2260       F  0.65666797  0.61193067  0.41452824    -0.12500
F2261       F  0.59068893  0.48252404  0.43863490    -0.13100
C2262       C  0.67010640  0.57510242  0.38237357     0.16700
C2263       C  0.69682086  0.59014150  0.37033879     0.26100
C2264       C  0.72911001  0.59837140  0.37591347    -0.40200
C2265       C  0.73345301  0.58926461  0.39346835     0.33100
C2266       C  0.70661386  0.57406313  0.40538213     0.14800
F2267       F  0.63950552  0.56863929  0.37697058    -0.12500
F2268       F  0.76379860  0.59572977  0.39935681    -0.13100
F2269       F  0.69118129  0.59786688  0.35352841    -0.15300
F2270       F  0.71173220  0.56695866  0.42245411    -0.13900
F2271       F  0.63922651  0.50159698  0.41340018    -0.13900
F2272       F  0.60874094  0.59403440  0.43977602    -0.15300
C2273       C  0.88971638  0.77679544  0.41355186     0.14800
C2274       C  0.89859087  0.80940601  0.40915969     0.01700
C2275       C  0.89565962  0.81756800  0.39129484     0.16700
C2276       C  0.88413310  0.79327848  0.37782657     0.26100
C2277       C  0.87514294  0.76033550  0.38212235    -0.40200
C2278       C  0.87803412  0.75240652  0.40021501     0.33100
C2279       C  0.91232157  0.83529246  0.42310490     0.01800
F2280       F  0.90458095  0.84925640  0.38687353    -0.12500
F2281       F  0.87029088  0.72120696  0.40505894    -0.13100
C2282       C  0.94521601  0.84810555  0.42881695     0.16700
C2283       C  0.95921730  0.87420156  0.44118467     0.26100
C2284       C  0.94036513  0.88794967  0.44809542    -0.40200
C2285       C  0.90669113  0.87367595  0.44291089     0.33100
C2286       C  0.89292416  0.84768411  0.43043550     0.14800
F2287       F  0.96410681  0.83596451  0.42193616    -0.12500
F2288       F  0.88710923  0.88514263  0.44959671    -0.13100
F2289       F  0.99153322  0.88649757  0.44589869    -0.15300
F2290       F  0.86070571  0.83476591  0.42534257    -0.13900
F2291       F  0.89255616  0.76864170  0.43080074    -0.13900
F2292       F  0.88175091  0.80207425  0.36065708    -0.15300
C2293       C  0.92497724  0.62582844  0.39965240     0.14800
C2294       C  0.92645932  0.59732243  0.39523447     0.01700
C2295       C  0.91516773  0.58246280  0.37823086     0.16700
C2296       C  0.90098161  0.59503147  0.36613479     0.26100
C2297       C  0.89752594  0.62234543  0.37106135    -0.40200
C2298       C  0.91063820  0.63822444  0.38771068     0.33100
C2299       C  0.93739296  0.58185195  0.40899571     0.01800
F2300       F  0.91714842  0.55529481  0.37357511    -0.12500
F2301       F  0.90899770  0.66549203  0.39262117    -0.13100
C2302       C  0.91435466  0.55116339  0.41651682     0.16700
C2303       C  0.92380953  0.53721006  0.43038538     0.26100
C2304       C  0.95672604  0.55370102  0.43699132    -0.40200
C2305       C  0.97976983  0.58466819  0.42931587     0.33100
C2306       C  0.97008088  0.59856954  0.41552855     0.14800
F2307       F  0.88233581  0.53507908  0.41071117    -0.12500
F2308       F  0.01185801  0.60160542  0.43497747    -0.13100
F2309       F  0.90052856  0.50763505  0.43736111    -0.15300
F2310       F  0.99270853  0.62836643  0.40845587    -0.13900
F2311       F  0.93592684  0.64071230  0.41595485    -0.13900
F2312       F  0.88900241  0.57939984  0.35011170    -0.15300
C2313       C  0.56583504  0.61410533  0.90621513     0.14800
C2314       C  0.58788902  0.64716887  0.91083767     0.01700
C2315       C  0.59719175  0.65567255  0.92894530     0.16700
C2316       C  0.58371644  0.63147002  0.94240424     0.26100
C2317       C  0.56067340  0.59836007  0.93791008    -0.40200
C2318       C  0.55230543  0.58987049  0.91957876     0.33100
C2319       C  0.60000249  0.67307011  0.89687597     0.01800
F2320       F  0.61859332  0.68764077  0.93364214    -0.12500
F2321       F  0.53030554  0.55827621  0.91450216    -0.13100
C2322       C  0.57743731  0.67918731  0.88742011     0.16700
C2323       C  0.58895965  0.70537435  0.87514734     0.26100
C2324       C  0.62333456  0.72587777  0.87215508    -0.40200
C2325       C  0.64575933  0.71868427  0.88116244     0.33100
C2326       C  0.63411889  0.69252905  0.89343735     0.14800
F2327       F  0.54426926  0.66053224  0.89059892    -0.12500
F2328       F  0.67910467  0.73777416  0.87875386    -0.13100
F2329       F  0.56645302  0.71087650  0.86642777    -0.15300
F2330       F  0.65620801  0.68645930  0.90219754    -0.13900
F2331       F  0.55721004  0.60534423  0.88870882    -0.13900
F2332       F  0.59322285  0.64051899  0.95978088    -0.15300
C2333       C  0.84439803  0.91325980  0.93295328     0.14800
C2334       C  0.85153445  0.92419816  0.91502590     0.01700
C2335       C  0.88364278  0.94862371  0.91015532     0.16700
C2336       C  0.90876715  0.96178691  0.92305467     0.26100
C2337       C  0.90204520  0.95064331  0.94112724    -0.40200
C2338       C  0.86947580  0.92645094  0.94598992     0.33100
C2339       C  0.82521967  0.91080978  0.90140632     0.01800
F2340       F  0.89060253  0.95971184  0.89286329    -0.12500
F2341       F  0.86201155  0.91503138  0.96319599    -0.13100
C2342       C  0.80779146  0.92738762  0.89767793     0.16700
C2343       C  0.78221814  0.91453852  0.88501141     0.26100
C2344       C  0.77368795  0.88472361  0.87583359    -0.40200
C2345       C  0.79203207  0.86864953  0.87936041     0.33100
C2346       C  0.81767479  0.88172360  0.89206862     0.14800
F2347       F  0.81533297  0.95586355  0.90652702    -0.12500
F2348       F  0.78529152  0.84036874  0.87055669    -0.13100
F2349       F  0.76531756  0.93094359  0.88216925    -0.15300
F2350       F  0.83516002  0.86603791  0.89532070    -0.13900
F2351       F  0.81312530  0.88979243  0.93776577    -0.13900
F2352       F  0.93865457  0.46356541  0.91772142    -0.15300
C2353       C  0.62551810  0.92762903  0.89899480     0.14800
C2354       C  0.59957516  0.90617606  0.91044223    -0.02300
C2355       C  0.58577965  0.87180355  0.90859367     0.16700
C2356       C  0.59728679  0.85888559  0.89515500     0.26100
C2357       C  0.62300618  0.88027179  0.88336559    -0.40200
C2358       C  0.63730738  0.91488350  0.88564272     0.33100
C2359       C  0.58432122  0.91955199  0.92283284     0.01800
F2360       F  0.56039267  0.85075199  0.91946534    -0.12500
F2361       F  0.66202771  0.93652402  0.87460871    -0.13100
C2362       C  0.56308252  0.92989548  0.91576004     0.16700
C2363       C  0.54799433  0.94238757  0.92708468     0.26100
C2364       C  0.55412562  0.94517160  0.94588142    -0.40200
C2365       C  0.57544872  0.93451714  0.95296233     0.33100
C2366       C  0.59036005  0.92172980  0.94148392     0.14800
F2367       F  0.55677416  0.92766504  0.89775677    -0.12500
F2368       F  0.58236628  0.93693296  0.97088734    -0.13100
F2369       F  0.01580495  0.93958710  0.92211743    -0.15300
F2370       F  0.61109130  0.91196592  0.94850454    -0.13900
F2371       F  0.63892304  0.96099070  0.90051995    -0.13900
F2372       F  0.58326090  0.82545409  0.89375877    -0.15300
C2373       C  0.49721500  0.75217926  0.80008115     0.14800
C2374       C  0.99386674  0.74807038  0.78055155     0.01700
C2375       C  0.52469175  0.76418543  0.77105801     0.16700
C2376       C  0.55584755  0.77986054  0.77967994     0.26100
C2377       C  0.55807772  0.78157245  0.79871059    -0.40200
C2378       C  0.52811950  0.76790434  0.80873638     0.33100
C2379       C  0.96072108  0.73137620  0.77159775     0.01800
F2380       F  0.52335604  0.76239773  0.75275560    -0.12500
F2381       F  0.52839674  0.76957673  0.82704092    -0.13100
C2382       C  0.95162868  0.74922360  0.75988218     0.16700
C2383       C  0.92046716  0.73360627  0.75145068     0.26100
C2384       C  0.89809545  0.69961024  0.75416660    -0.40200
C2385       C  0.90654689  0.68205012  0.76646442     0.33100
C2386       C  0.93760341  0.69779377  0.77511950     0.14800
F2387       F  0.97278738  0.78197876  0.75682840    -0.12500
F2388       F  0.88516860  0.64943636  0.76969799    -0.13100
F2389       F  0.91195768  0.75180675  0.74073589    -0.15300
F2390       F  0.94548633  0.68002697  0.78659121    -0.13900
F2391       F  0.96797757  0.73870081  0.80954435    -0.13900
F2392       F  0.58370265  0.79303375  0.76934432    -0.15300
C2393       C  0.73972873  0.97669342  0.77168218     0.14800
C2394       C  0.75343919  0.50431471  0.78088516     0.01700
C2395       C  0.73809378  0.00233834  0.79983671     0.16700
C2396       C  0.72305522  0.97139535  0.80827013     0.26100
C2397       C  0.71645021  0.94255385  0.79857036    -0.40200
C2398       C  0.72459326  0.94554469  0.78008835     0.33100
C2399       C  0.76955317  0.53759452  0.77238474     0.01800
F2400       F  0.79799429  0.52286990  0.80224107    -0.12500
F2401       F  0.71893727  0.91859473  0.77026016    -0.13100
C2402       C  0.75354570  0.55644753  0.77219363     0.16700
C2403       C  0.76865211  0.58768562  0.76391073     0.26100
C2404       C  0.79998286  0.60052484  0.75570776    -0.40200
C2405       C  0.81618399  0.58187175  0.75617594     0.33100
C2406       C  0.80118872  0.55075633  0.76451157     0.14800
F2407       F  0.72310132  0.54439978  0.77986544    -0.12500
F2408       F  0.84598023  0.59325381  0.74785003    -0.13100
F2409       F  0.75162129  0.60423870  0.76281723    -0.15300
F2410       F  0.81700322  0.53288228  0.76431063    -0.13900
F2411       F  0.70805655  0.48345161  0.75990022    -0.13900
F2412       F  0.71522040  0.96990364  0.82604457    -0.15300
C2413       C  0.73484321  0.76006770  0.76703692     0.14800
C2414       C  0.76362974  0.76204288  0.77449083     0.01700
C2415       C  0.77680433  0.77998356  0.79046355     0.16700
C2416       C  0.76066634  0.79444057  0.79937625     0.26100
C2417       C  0.73082244  0.79121759  0.79249568    -0.40200
C2418       C  0.71857301  0.77464386  0.77594035     0.33100
C2419       C  0.77852291  0.74323652  0.76654742     0.01800
F2420       F  0.80493800  0.78272856  0.79769326    -0.12500
F2421       F  0.68987917  0.77084743  0.76893464    -0.13100
C2422       C  0.80078992  0.75607194  0.75201986     0.16700
C2423       C  0.81459856  0.73790386  0.74466046     0.26100
C2424       C  0.80550886  0.70603638  0.75134298    -0.40200
C2425       C  0.78478490  0.69429694  0.76660360     0.33100
C2426       C  0.77129054  0.71264570  0.77405749     0.14800
F2427       F  0.80919712  0.78621342  0.74500755    -0.12500
F2428       F  0.77662947  0.66460104  0.77401117    -0.13100
F2429       F  0.83685669  0.75145355  0.73096357    -0.15300
F2430       F  0.75057542  0.70026455  0.78847102    -0.13900
F2431       F  0.72173896  0.74279322  0.75155392    -0.13900
F2432       F  0.77408377  0.81125058  0.81495756    -0.15300
C2433       C  0.50290726  0.72293665  0.67742375     0.14800
C2434       C  0.99500990  0.73977220  0.68878049     0.01700
C2435       C  0.51953921  0.77282724  0.69489636     0.16700
C2436       C  0.54976436  0.78893800  0.68547420     0.26100
C2437       C  0.55686674  0.77218568  0.67189475    -0.40200
C2438       C  0.53327552  0.73881906  0.66819810     0.33100
C2439       C  0.96164048  0.72355108  0.69746397     0.01800
F2440       F  0.51372075  0.78942784  0.70816476    -0.12500
F2441       F  0.53887264  0.72193517  0.65501203    -0.13100
C2442       C  0.95004157  0.69396467  0.70737192     0.16700
C2443       C  0.91861238  0.67892331  0.71553481     0.26100
C2444       C  0.89840743  0.69337215  0.71410606    -0.40200
C2445       C  0.91017518  0.72309971  0.70446463     0.33100
C2446       C  0.94120991  0.73777851  0.69598333     0.14800
F2447       F  0.96962910  0.68027525  0.70968289    -0.12500
F2448       F  0.89283402  0.73938147  0.70443438    -0.13100
F2449       F  0.90831762  0.65082555  0.72535863    -0.15300
F2450       F  0.95144297  0.76617220  0.68644831    -0.13900
F2451       F  0.98165707  0.68974288  0.67286074    -0.13900
F2452       F  0.57220266  0.82083588  0.68976721    -0.15300
C2453       C  0.79839200  0.55424028  0.69702561     0.14800
C2454       C  0.76403697  0.53258962  0.69945803     0.01700
C2455       C  0.74581738  0.54353025  0.70969286     0.16700
C2456       C  0.76166962  0.57520294  0.71746665     0.26100
C2457       C  0.79621032  0.59623738  0.71565300    -0.40200
C2458       C  0.81432590  0.58573968  0.70509471     0.33100
C2459       C  0.74714564  0.49907876  0.69091437     0.01800
F2460       F  0.71271076  0.52331382  0.71243816    -0.12500
F2461       F  0.84759458  0.60571027  0.70292383    -0.13100
C2462       C  0.75727294  0.97787067  0.69421626     0.16700
C2463       C  0.74219742  0.94691621  0.68555950     0.26100
C2464       C  0.71438739  0.93711966  0.67426154    -0.40200
C2465       C  0.70171250  0.95887595  0.67218218     0.33100
C2466       C  0.71709892  0.98994430  0.68062793     0.14800
F2467       F  0.78359461  0.98621180  0.70528501    -0.12500
F2468       F  0.67520754  0.95082593  0.66130842    -0.13100
F2469       F  0.75482889  0.92653227  0.68831494    -0.15300
F2470       F  0.70869714  0.51100723  0.67574477    -0.13900
F2471       F  0.81647014  0.54499772  0.68664394    -0.13900
F2472       F  0.74317820  0.58547764  0.72665724    -0.15300
C2473       C  0.74670824  0.69765575  0.70722201     0.14800
C2474       C  0.76183409  0.71842698  0.69228411     0.01700
C2475       C  0.79226879  0.72273854  0.68592207     0.16700
C2476       C  0.80846387  0.70855961  0.69512499     0.26100
C2477       C  0.79493747  0.69052180  0.71114058    -0.40200
C2478       C  0.76279900  0.68334608  0.71633676     0.33100
C2479       C  0.74645464  0.73639278  0.68372580     0.01800
F2480       F  0.80652953  0.74108474  0.67088107    -0.12500
F2481       F  0.74716160  0.66288564  0.73049890    -0.13100
C2482       C  0.76393787  0.77122703  0.68298910     0.16700
C2483       C  0.74952999  0.78845170  0.67518407     0.26100
C2484       C  0.71709467  0.77119407  0.66792427    -0.40200
C2485       C  0.69958359  0.73612308  0.66881268     0.33100
C2486       C  0.71414555  0.71902538  0.67660954     0.14800
F2487       F  0.79492375  0.78869632  0.69015440    -0.12500
F2488       F  0.66845094  0.71807478  0.66191155    -0.13100
F2489       F  0.76749847  0.82209871  0.67483473    -0.15300
F2490       F  0.69685622  0.68534011  0.67688409    -0.13900
F2491       F  0.71698047  0.69236374  0.71349490    -0.13900
F2492       F  0.83768807  0.71331093  0.68853500    -0.15300
C2493       C  0.58143255  0.62922946  0.55153557     0.14800
C2494       C  0.58447721  0.65976434  0.54680977     0.01700
C2495       C  0.57483794  0.66401076  0.52946985     0.16700
C2496       C  0.56145036  0.63759408  0.51716133     0.26100
C2497       C  0.55753370  0.60666483  0.52212477    -0.40200
C2498       C  0.56802443  0.60292285  0.53937801     0.33100
C2499       C  0.59691579  0.68663722  0.56031457     0.01800
F2500       F  0.57726541  0.69331807  0.52473265    -0.12500
F2501       F  0.56538596  0.57369227  0.54453528    -0.13100
C2502       C  0.62656647  0.71652004  0.55730929     0.16700
C2503       C  0.63893600  0.74131436  0.57049644     0.26100
C2504       C  0.62180030  0.73654152  0.58695211    -0.40200
C2505       C  0.59216728  0.70641939  0.58992972     0.33100
C2506       C  0.57980042  0.68176168  0.57668806     0.14800
F2507       F  0.64395759  0.72132540  0.54178286    -0.12500
F2508       F  0.57461734  0.70113022  0.60543561    -0.13100
F2509       F  0.66808389  0.76968260  0.56730113    -0.15300
F2510       F  0.55079811  0.65316139  0.57974007    -0.13900
F2511       F  0.59147883  0.62488890  0.56802217    -0.13900
F2512       F  0.05419427  0.63972364  0.50131287    -0.15300
C2513       C  0.79537235  0.92740819  0.56702832     0.14800
C2514       C  0.82442520  0.92597931  0.56988514     0.01700
C2515       C  0.82831444  0.91242202  0.58603184     0.16700
C2516       C  0.80253477  0.89869238  0.59874674     0.26100
C2517       C  0.77256366  0.89834496  0.59539459    -0.40200
C2518       C  0.76969326  0.91383247  0.57967752     0.33100
C2519       C  0.85010021  0.93762871  0.55568464     0.01800
F2520       F  0.85646210  0.91112416  0.58906603    -0.12500
F2521       F  0.74177029  0.91547182  0.57642890    -0.13100
C2522       C  0.88101259  0.96616818  0.55841480     0.16700
C2523       C  0.90546434  0.97694774  0.54506756     0.26100
C2524       C  0.89942253  0.95924040  0.52872438    -0.40200
C2525       C  0.86811922  0.93092398  0.52589275     0.33100
C2526       C  0.84364195  0.92021776  0.53930126     0.14800
F2527       F  0.88739569  0.98372741  0.57398639    -0.12500
F2528       F  0.86168512  0.91281632  0.51052555    -0.13100
F2529       F  0.93146563  0.50150573  0.54549201    -0.15300
F2530       F  0.81389803  0.89229779  0.53653470    -0.13900
F2531       F  0.79174658  0.94159281  0.55182401    -0.13900
F2532       F  0.80613630  0.88404467  0.61375045    -0.15300
C2533       C  0.61525208  0.90997974  0.56379347     0.14800
C2534       C  0.58374954  0.90616939  0.56688483     0.01700
C2535       C  0.56678338  0.89116763  0.58298660     0.16700
C2536       C  0.58097784  0.87969416  0.59570660     0.26100
C2537       C  0.61218631  0.88276361  0.59238531    -0.40200
C2538       C  0.62927788  0.89826092  0.57635533     0.33100
C2539       C  0.56906656  0.91864982  0.55348846     0.01800
F2540       F  0.53611467  0.88694479  0.58617191    -0.12500
F2541       F  0.65992082  0.90255733  0.57293706    -0.13100
C2542       C  0.56385907  0.90723943  0.53554667     0.16700
C2543       C  0.55055109  0.91968318  0.52285474     0.26100
C2544       C  0.54213428  0.94372622  0.52794561    -0.40200
C2545       C  0.54767943  0.95517253  0.54597915     0.33100
C2546       C  0.56101037  0.94277212  0.55854544     0.14800
F2547       F  0.57132492  0.88373091  0.53037601    -0.12500
F2548       F  0.54099896  0.97906096  0.55149781    -0.13100
F2549       F  0.54560929  0.90789110  0.50569550    -0.15300
F2550       F  0.56692450  0.95505710  0.57561800    -0.13900
F2551       F  0.63272196  0.92560419  0.54871325    -0.13900
F2552       F  0.56367294  0.86447489  0.61088702    -0.15300
loop_ 
_geom_bond_atom_site_label_1 
_geom_bond_atom_site_label_2 
_geom_bond_distance 
_geom_bond_site_symmetry_2 
_ccdc_geom_bond_type 
Zn1           O5   1.968       .  S
Zn1           O6   2.047       .  S
Zn1          O10   2.024       .  S
Zn1          O17   2.031       .  S
Zn2           O5   1.940       .  S
Zn2           O7   1.962       .  S
Zn2           O9   1.973       .  S
Zn2          O13   1.986       .  S
Zn3           O5   1.978       .  S
Zn3           O8   2.047       .  S
Zn3          O11   2.059       .  S
Zn3          O14   2.045       .  S
Zn4           O5   1.965       .  S
Zn4          O12   2.031       .  S
Zn4          O15   2.035       .  S
Zn4          O16   2.032       .  S
O6           C18   1.275       .  A
O7           C19   1.266       .  A
O8           C20   1.278       .  A
O9           C18   1.268       .  A
O10          C20   1.276       .  A
O11          C19   1.277       .  A
O12          C21   1.277       .  A
O13          C22   1.268       .  A
O14          C21   1.278       .  A
O15          C22   1.275       .  A
O16          C23   1.276       .  A
O17          C23   1.277       .  A
C18         C623   1.483       .  S
C19         C603   1.479       .  S
C20         C550   1.492       .  S
C21         C570   1.497       .  S
C22         C590   1.478       .  S
C23         C523   1.487       .  S
C24          H25   1.108       .  S
C24          C30   1.540       .  S
C24          C29   1.545       .  S
C24          C28   1.536       .  S
C26          H27   1.107       .  S
C26          C32   1.536       .  S
C26          C31   1.548       .  S
C26          C33   1.547       .  S
C28          C31   1.375       .  D
C28         C543   1.495       .  S
C29          C32   1.369       .  D
C29         C530   1.480       .  S
C30          C33   1.381       .  D
C30         C563   1.493       .  S
C31         C490   1.484       .  S
C32         C470   1.489       .  S
C33         C510   1.501       .  S
Zn34         O38   1.948       .  S
Zn34         O39   1.998       .  S
Zn34         O43   2.017       .  S
Zn34         O50   1.999       .  S
Zn35         O38   1.985       .  S
Zn35         O40   2.065       .  S
Zn35         O42   2.080       .  S
Zn35         O46   2.078       .  S
Zn36         O38   1.940       .  S
Zn36         O41   2.003       .  S
Zn36         O44   1.962       .  S
Zn36         O47   1.989       .  S
Zn37         O38   1.947       .  S
Zn37         O45   2.005       .  S
Zn37         O48   1.981       .  S
Zn37         O49   1.984       .  S
O39          C51   1.273       .  A
O40          C52   1.280       .  A
O41          C53   1.270       .  A
O42          C51   1.282       .  A
O43          C53   1.272       .  A
O44          C52   1.269       .  A
O45          C54   1.269       .  A
O46          C55   1.281       .  A
O47          C54   1.268       .  A
O48          C55   1.270       .  A
O49          C56   1.270       .  A
O50          C56   1.271       .  A
C51         C463   1.501       .  S
C52         C483   1.490       .  S
C53         C443   1.485       .  S
C54         C430   1.483       .  S
C55         C503   1.488       .  S
C56         C410   1.477       .  S
Zn57         O61   1.961       .  S
Zn57         O62   2.033       .  S
Zn57         O66   2.033       .  S
Zn57         O73   2.035       .  S
Zn58         O61   1.966       .  S
Zn58         O63   2.043       .  S
Zn58         O65   2.028       .  S
Zn58         O69   2.034       .  S
Zn59         O61   1.935       .  S
Zn59         O64   1.975       .  S
Zn59         O67   1.976       .  S
Zn59         O70   2.000       .  S
Zn60         O61   1.948       .  S
Zn60         O68   2.020       .  S
Zn60         O71   1.997       .  S
Zn60         O72   2.009       .  S
O62          C74   1.276       .  A
O63          C75   1.275       .  A
O64          C76   1.268       .  A
O65          C74   1.276       .  A
O66          C76   1.275       .  A
O67          C75   1.269       .  A
O68          C77   1.272       .  A
O69          C78   1.277       .  A
O70          C77   1.270       .  A
O71          C78   1.273       .  A
O72          C79   1.273       .  A
O73          C79   1.276       .  A
C74         C310   1.492       .  S
C75         C383   1.479       .  S
C76         C363   1.486       .  S
C77         C350   1.486       .  S
C78         C283   1.489       .  S
C79         C323   1.479       .  S
C80          H81   1.110       .  S
C80          C86   1.545       .  S
C80          C85   1.535       .  S
C80          C84   1.547       .  S
C82          H83   1.110       .  S
C82          C88   1.545       .  S
C82          C87   1.531       .  S
C82          C89   1.542       .  S
C84          C87   1.373       .  D
C84         C230   1.482       .  S
C85          C88   1.375       .  D
C85         C263   1.494       .  S
C86          C89   1.385       .  D
C86         C250   1.505       .  S
C87         C303   1.493       .  S
C88         C330   1.485       .  S
C89         C290   1.497       .  S
Zn90         O94   1.958       .  S
Zn90         O95   2.032       .  S
Zn90         O99   2.027       .  S
Zn90        O106   2.016       .  S
Zn91         O94   1.938       .  S
Zn91         O96   1.972       .  S
Zn91         O98   1.983       .  S
Zn91        O102   1.975       .  S
Zn92         O94   1.967       .  S
Zn92         O97   2.035       .  S
Zn92        O100   2.029       .  S
Zn92        O103   2.027       .  S
Zn93         O94   1.963       .  S
Zn93        O101   2.021       .  S
Zn93        O104   2.037       .  S
Zn93        O105   2.026       .  S
O95         C107   1.274       .  A
O96         C108   1.268       .  A
O97         C109   1.276       .  A
O98         C107   1.269       .  A
O99         C109   1.276       .  A
O100        C108   1.274       .  A
O101        C110   1.275       .  A
O102        C111   1.268       .  A
O103        C110   1.275       .  A
O104        C111   1.274       .  A
O105        C112   1.276       .  A
O106        C112   1.274       .  A
C107        C203   1.484       .  S
C108        C170   1.484       .  S
C109        C243   1.496       .  S
C110        C270   1.489       .  S
C111        C190   1.480       .  S
C112        C223   1.484       .  S
Zn113      O2031   1.958       .  S
Zn113       O122   2.014   1_556  S
Zn113       O129   2.030       .  S
Zn113       O756   2.007   1_556  S
Zn114       O117   1.950       .  S
Zn114       O119   1.991   1_556  S
Zn114       O125   2.014       .  S
Zn114      O1397   1.998   1_456  S
Zn115       O755   1.954       .  S
Zn115       O126   2.047       .  S
Zn115      O1396   2.003   1_456  S
Zn115       O761   2.002   1_556  S
Zn116       O117   1.913   1_565  S
Zn116       O127   1.966   1_565  S
Zn116       O762   1.967       .  S
Zn116      O2042   1.960   1_455  S
O117      Zn2027   1.959   1_445  S
O117       Zn753   1.953   1_545  S
O118       Zn751   2.016   1_544  S
O118        C130   1.273       .  A
O119        C131   1.271       .  A
O120      Zn1391   2.000   1_554  S
O120        C132   1.273       .  A
O121      Zn1390   1.990   1_554  S
O121        C130   1.270       .  A
O122        C132   1.274       .  A
O123       Zn753   2.000   1_544  S
O123        C131   1.273       .  A
O124       Zn754   1.965       .  S
O124        C133   1.267       .  A
O125        C134   1.272       .  A
O126        C133   1.275       .  A
O127        C134   1.267       .  A
O128      Zn2030   1.962       .  S
O128        C135   1.267       .  A
O129        C135   1.274       .  A
C130        C210   1.478       .  S
C131        C163   1.476       .  S
C132        C183   1.484       .  S
C133        C450   1.483       .  S
C134        C403   1.479       .  S
C135        C423   1.480       .  S
Zn136       O140   1.922       .  S
Zn136       O141   1.977   1_655  S
Zn136      O1421   1.967       .  S
Zn136       O790   1.969   1_655  S
Zn137       O140   1.960   1_455  S
Zn137       O144   2.036       .  S
Zn137      O1418   2.003   1_455  S
Zn137       O786   2.010       .  S
Zn138      O1416   1.964       .  S
Zn138       O143   2.041       .  S
Zn138       O146   2.011       .  S
Zn138       O787   2.024       .  S
Zn139       O778   1.959   1_445  S
Zn139       O150   2.004       .  S
Zn139       O151   2.039       .  S
Zn139      O1423   2.002   1_455  S
O140      Zn1414   1.966       .  S
O140       Zn777   1.957   1_655  S
O141        C153   1.268       .  A
O142      Zn1413   2.013       .  S
O142        C154   1.274       .  A
O143        C155   1.276       .  A
O144        C153   1.274       .  A
O145      Zn1412   1.976       .  S
O145        C155   1.269       .  A
O146        C154   1.274       .  A
O147      Zn1415   2.001       .  S
O147        C156   1.272       .  A
O148       Zn775   2.014       .  S
O148        C157   1.273   1_565  A
O149       Zn776   2.028   1_545  S
O149        C156   1.276       .  A
O150        C157   1.272       .  A
O151        C158   1.274       .  A
O152       Zn774   1.967       .  S
O152        C158   1.268       .  A
C153        C630   1.478       .  S
C154        C370   1.479       .  S
C155        C610   1.478       .  S
C156        C390   1.489       .  S
C157        C343   1.487       .  S
C158        C583   1.478       .  S
C159        C160   1.400       .  A
C159        C164   1.394       .  A
C159        F177   1.358       .  S
C160        C165   1.465       .  S
C160        C161   1.399       .  A
C161        C162   1.395       .  A
C161        F166   1.358       .  S
C162        C163   1.412       .  A
C162        F178   1.358       .  S
C163        C164   1.409       .  A
C164        F167   1.358       .  S
C165        C168   1.397       .  A
C165        C172   1.400       .  A
C168        C169   1.393       .  A
C168        F173   1.359       .  S
C169        C170   1.415       .  A
C169        F175   1.358       .  S
C170        C171   1.411       .  A
C171        C172   1.397       .  A
C171        F174   1.357       .  S
C172        F176   1.358       .  S
C179        C180   1.402       .  A
C179        C184   1.398       .  A
C179        F197   1.358       .  S
C180        C185   1.472       .  S
C180        C181   1.400       .  A
C181        C182   1.395       .  A
C181        F186   1.358       .  S
C182        C183   1.412       .  A
C182        F198   1.358       .  S
C183        C184   1.412       .  A
C184        F187   1.358       .  S
C185        C188   1.400       .  A
C185        C192   1.404       .  A
C188        C189   1.393       .  A
C188        F193   1.358       .  S
C189        C190   1.411       .  A
C189        F195   1.358       .  S
C190        C191   1.408       .  A
C191        C192   1.401       .  A
C191        F194   1.358       .  S
C192        F196   1.358       .  S
C199        C200   1.401       .  A
C199        C204   1.399       .  A
C199        F217   1.358       .  S
C200        C205   1.468       .  S
C200        C201   1.398       .  A
C201        C202   1.395       .  A
C201        F206   1.358       .  S
C202        C203   1.414       .  A
C202        F218   1.358       .  S
C203        C204   1.411       .  A
C204        F207   1.357       .  S
C205        C208   1.402       .  A
C205        C212   1.399       .  A
C208        C209   1.398       .  A
C208        F213   1.358       .  S
C209        C210   1.409       .  A
C209        F215   1.358       .  S
C210        C211   1.412       .  A
C211        C212   1.395       .  A
C211        F214   1.358       .  S
C212        F216   1.358       .  S
C219        C224   1.400       .  A
C219       C1496   1.407       .  A
C219        F237   1.358       .  S
C220        C225   1.484       .  S
C220        C221   1.405   1_455  A
C220       C1495   1.407   1_455  A
C221       C1498   1.399       .  A
C221        F226   1.358   1_655  S
C222        C223   1.410       .  A
C222       C1497   1.399       .  A
C222        F238   1.358       .  S
C223        C224   1.408       .  A
C224        F227   1.358       .  S
C225        C228   1.407       .  A
C225        C232   1.407       .  A
C228        C229   1.399       .  A
C228        F233   1.358       .  S
C229        C230   1.405       .  A
C229        F235   1.358       .  S
C230        C231   1.403       .  A
C231        C232   1.398       .  A
C231        F234   1.354       .  S
C232        F236   1.358       .  S
C239        C244   1.403       .  A
C239        C878   1.406   1_545  A
C239        F895   1.358       .  S
C240        C245   1.485       .  S
C240        C877   1.405       .  A
C240        C879   1.403       .  A
C241        C242   1.400       .  A
C241        C878   1.404   1_545  A
C241        F246   1.358   1_545  S
C242        C243   1.413       .  A
C242        F258   1.358       .  S
C243        C244   1.414       .  A
C244        F247   1.358       .  S
C245        C248   1.404       .  A
C245        C252   1.403       .  A
C248        C249   1.402       .  A
C248        F253   1.358       .  S
C249        C250   1.408       .  A
C249        F255   1.352       .  S
C250        C251   1.414       .  A
C251        C252   1.402       .  A
C251        F254   1.358       .  S
C252        F256   1.358       .  S
F257        C877   1.358       .  S
C259        C260   1.405       .  A
C259        C264   1.397       .  A
C259        F277   1.358       .  S
C260        C265   1.489       .  S
C260        C261   1.408       .  A
C261        C262   1.405       .  A
C261        F266   1.358       .  S
C262        C263   1.407       .  A
C262        F278   1.357       .  S
C263        C264   1.407       .  A
C264        F267   1.355       .  S
C265        C268   1.407       .  A
C265        C272   1.406       .  A
C268        C269   1.404       .  A
C268        F273   1.358       .  S
C269        C270   1.411       .  A
C269        F275   1.358       .  S
C270        C271   1.410       .  A
C271        C272   1.398       .  A
C271        F274   1.358       .  S
C272        F276   1.358       .  S
C279        C284   1.398       .  A
C279        C918   1.405   1_545  A
C279        F297   1.358       .  S
C280        C285   1.484       .  S
C280        C917   1.406       .  A
C280        C919   1.404       .  A
C281        C282   1.397       .  A
C281        C918   1.401   1_545  A
C281        F924   1.358   1_545  S
C282        C283   1.415       .  A
C282        F298   1.358       .  S
C283        C284   1.410       .  A
C284        F287   1.358       .  S
C285        C288   1.406       .  A
C285        C292   1.405       .  A
F286        C919   1.358       .  S
C288        C289   1.398       .  A
C288        F293   1.358       .  S
C289        C290   1.407       .  A
C289        F295   1.352       .  S
C290        C291   1.411       .  A
C291        C292   1.398       .  A
C291        F294   1.358       .  S
C292        F296   1.358       .  S
C299        C300   1.406       .  A
C299        C304   1.400       .  A
C299        F317   1.358       .  S
C300        C305   1.490       .  S
C300        C301   1.408       .  A
C301        C302   1.404       .  A
C301        F306   1.358       .  S
C302        C303   1.405       .  A
C302        F318   1.357       .  S
C303        C304   1.407       .  A
C304        F307   1.357       .  S
C305        C312   1.406   1_455  A
C305       C1584   1.406   1_455  A
C308        C309   1.400       .  A
C308       C1581   1.404       .  A
C308        F313   1.358       .  S
C309        C310   1.411       .  A
C309        F315   1.358       .  S
C310        C311   1.413       .  A
C311       C1588   1.402       .  A
C311        F314   1.358       .  S
C312       C1587   1.403       .  A
C312        F316   1.358   1_655  S
C319        C320   1.404       .  A
C319        C324   1.399       .  A
C319        F337   1.358       .  S
C320        C325   1.481       .  S
C320        C321   1.406       .  A
C321        C322   1.401       .  A
C321        F326   1.358       .  S
C322        C323   1.406       .  A
C322        F338   1.358       .  S
C323        C324   1.409       .  A
C324        F327   1.358       .  S
C325        C328   1.404       .  A
C325        C332   1.406       .  A
C328        C329   1.399       .  A
C328        F333   1.358       .  S
C329        C330   1.405       .  A
C329        F335   1.354       .  S
C330        C331   1.405       .  A
C331        C332   1.400       .  A
C331        F334   1.358       .  S
C332        F336   1.358       .  S
C339        C340   1.402       .  A
C339        C344   1.400       .  A
C339        F357   1.358       .  S
C340        C345   1.476       .  S
C340        C341   1.401       .  A
C341        C342   1.395       .  A
C341        F346   1.358       .  S
C342        C343   1.412       .  A
C342        F358   1.358       .  S
C343        C344   1.413       .  A
C344        F347   1.358   1_545  S
C345        C348   1.403       .  A
C345        C352   1.401       .  A
C348        C349   1.398       .  A
C348        F353   1.358       .  S
C349        C350   1.411       .  A
C349        F355   1.358       .  S
C350        C351   1.412       .  A
C351        C352   1.398       .  A
C351        F354   1.358       .  S
C352        F356   1.358       .  S
C359        C360   1.403       .  A
C359        C364   1.395       .  A
C359        F377   1.358       .  S
C360        C365   1.481       .  S
C360        C361   1.406       .  A
C361        C362   1.398       .  A
C361        F366   1.358       .  S
C362        C363   1.409       .  A
C362        F378   1.358       .  S
C363        C364   1.415       .  A
C364        F367   1.358       .  S
C365        C368   1.407       .  A
C365        C372   1.405       .  A
C368        C369   1.398       .  A
C368        F373   1.358       .  S
C369        C370   1.407       .  A
C369        F375   1.358       .  S
C370        C371   1.409       .  A
C371        C372   1.396       .  A
C371        F374   1.358       .  S
C372        F376   1.358       .  S
C379        C380   1.401       .  A
C379        C384   1.394       .  A
C379        F397   1.358       .  S
C380        C385   1.476       .  S
C380        C381   1.406       .  A
C381        C382   1.402       .  A
C381        F386   1.358       .  S
C382        C383   1.407       .  A
C382        F398   1.358       .  S
C383        C384   1.410       .  A
C384        F387   1.358       .  S
C385        C388   1.403       .  A
C385        C392   1.401       .  A
C388        C389   1.398       .  A
C388        F393   1.358       .  S
C389        C390   1.412       .  A
C389        F395   1.358       .  S
C390        C391   1.415       .  A
C391        C392   1.398       .  A
C391        F394   1.358       .  S
C392        F396   1.358       .  S
C399        C400   1.397       .  A
C399        C404   1.391       .  A
C399        F417   1.358       .  S
C400        C405   1.463       .  S
C400        C401   1.401       .  A
C401        C402   1.396       .  A
C401        F406   1.358       .  S
C402        C403   1.410       .  A
C402        F418   1.358       .  S
C403        C404   1.414       .  A
C404        F407   1.358       .  S
C405        C408   1.400       .  A
C405        C412   1.398       .  A
C408        C409   1.394       .  A
C408        F413   1.358       .  S
C409        C410   1.410       .  A
C409        F415   1.358       .  S
C410        C411   1.413       .  A
C411        C412   1.393       .  A
C411        F414   1.358       .  S
C412        F416   1.358       .  S
C419        C420   1.401       .  A
C419        C424   1.398       .  A
C419        F437   1.358       .  S
C420        C425   1.465       .  S
C420        C421   1.397       .  A
C421        C422   1.392       .  A
C421        F426   1.358       .  S
C422        C423   1.415       .  A
C422       F1076   1.359       .  S
C423        C424   1.409       .  A
C424        F427   1.358       .  S
C425        C428   1.397       .  A
C425        C432   1.400       .  A
C428        C429   1.393       .  A
C428        F433   1.358       .  S
C429        C430   1.413       .  A
C429        F435   1.358       .  S
C430        C431   1.413       .  A
C431        C432   1.397       .  A
C431        F434   1.358       .  S
C432        F436   1.358       .  S
F438       C1060   1.359       .  S
C439        C440   1.401       .  A
C439        C444   1.399       .  A
C439        F457   1.358       .  S
C440        C445   1.472       .  S
C440        C441   1.400       .  A
C441        C442   1.397       .  A
C441        F446   1.358       .  S
C442        C443   1.411       .  A
C442        F458   1.358       .  S
C443        C444   1.412       .  A
C444        F447   1.358       .  S
C445        C448   1.398       .  A
C445        C452   1.404       .  A
C448        C449   1.393       .  A
C448        F453   1.358       .  S
C449        C450   1.413       .  A
C449       F1731   1.358       .  S
C450        C451   1.410       .  A
C451        C452   1.403       .  A
C451        F454   1.358       .  S
C452        F456   1.357       .  S
F455       C1725   1.359       .  S
C459        C464   1.399   1_655  A
C459       C1736   1.403       .  A
C459       F1753   1.358       .  S
C460        C465   1.491       .  S
C460       C1735   1.404       .  A
C460       C1737   1.408       .  A
C461        C462   1.407       .  A
C461       C1736   1.409   1_455  A
C461        F466   1.358       .  S
C462        C463   1.412       .  A
C462        F478   1.357       .  S
C463        C464   1.417       .  A
C464        F467   1.358       .  S
C465        C468   1.409       .  A
C465        C472   1.407       .  A
C468        C469   1.403       .  A
C468        F473   1.358       .  S
C469        C470   1.404       .  A
C469        F475   1.357       .  S
C470        C471   1.405       .  A
C471        C472   1.403       .  A
C471        F474   1.356       .  S
C472        F476   1.358       .  S
F477       C1735   1.358       .  S
C479        C484   1.403       .  A
C479       C1118   1.405       .  A
C479       F1135   1.358       .  S
C480        C485   1.483       .  S
C480       C1117   1.407   1_545  A
C480       C1119   1.401       .  A
C481        C482   1.393       .  A
C481       C1118   1.397       .  A
C481       F1124   1.358       .  S
C482        C483   1.417       .  A
C482        F498   1.358       .  S
C483        C484   1.411       .  A
C484        F487   1.357       .  S
C485        C488   1.406       .  A
C485        C492   1.405       .  A
F486       C1119   1.358       .  S
C488        C489   1.399       .  A
C488        F493   1.358       .  S
C489        C490   1.404       .  A
C489        F495   1.355       .  S
C490        C491   1.405       .  A
C491        C492   1.399       .  A
C491        F494   1.357       .  S
C492        F496   1.358       .  S
F497       C1117   1.358       .  S
C499        C500   1.407       .  A
C499        C504   1.406       .  A
C499        F517   1.358       .  S
C500        C505   1.481       .  S
C500        C501   1.400       .  A
C501        C502   1.397       .  A
C501        F506   1.358       .  S
C502        C503   1.413       .  A
C502        F518   1.358       .  S
C503        C504   1.408       .  A
C504        F507   1.357       .  S
C505        C508   1.401       .  A
C505        C512   1.404       .  A
C508        C509   1.401       .  A
C508        F513   1.358       .  S
C509        C510   1.414       .  A
C509        F515   1.357       .  S
C510        C511   1.407       .  A
C511        C512   1.401       .  A
C511        F514   1.353       .  S
C512        F516   1.358       .  S
C519        C524   1.403       .  A
C519       C1796   1.407   1_455  A
C519       F1813   1.358   1_455  S
C520        C525   1.488       .  S
C520       C1795   1.408       .  A
C520       C1797   1.408       .  A
C521        C522   1.400       .  A
C521       C1796   1.407   1_455  A
C521        F526   1.358       .  S
C522        C523   1.408       .  A
C522        F538   1.358       .  S
C523        C524   1.410       .  A
C524        F527   1.358       .  S
C525        C528   1.408       .  A
C525        C532   1.409       .  A
C528        C529   1.399       .  A
C528        F533   1.358       .  S
C529        C530   1.403       .  A
C529        F535   1.356       .  S
C530        C531   1.402       .  A
C531        C532   1.399       .  A
C531        F534   1.357       .  S
C532        F536   1.358       .  S
F537       C1795   1.358       .  S
C539        C540   1.410       .  A
C539        C544   1.403       .  A
C539        F557   1.358       .  S
C540        C545   1.495       .  S
C540        C541   1.408       .  A
C541        C542   1.400       .  A
C541        F546   1.358       .  S
C542        C543   1.407       .  A
C542        F558   1.355       .  S
C543        C544   1.404       .  A
C544        F547   1.355       .  S
C545       C1186   1.409   1_545  A
C545       C1190   1.407   1_545  A
C548        C549   1.404       .  A
C548       C1183   1.408       .  A
C548        F553   1.358       .  S
C549        C550   1.409       .  A
C549        F555   1.358       .  S
C550        C551   1.411       .  A
C551        C552   1.402       .  A
C551        F554   1.358       .  S
C552       C1183   1.407       .  A
C552       F1194   1.358       .  S
F556       C1190   1.358   1_545  S
C559        C560   1.407       .  A
C559        C564   1.399       .  A
C559        F577   1.358       .  S
C560        C565   1.491       .  S
C560        C561   1.409       .  A
C561        C562   1.403       .  A
C561        F566   1.358       .  S
C562        C563   1.405       .  A
C562        F578   1.356       .  S
C563        C564   1.408       .  A
C564        F567   1.358       .  S
C565        C568   1.406       .  A
C565        C572   1.405       .  A
C568        C569   1.403       .  A
C568        F573   1.358       .  S
C569        C570   1.412       .  A
C569        F575   1.358       .  S
C570        C571   1.414       .  A
C571        C572   1.402       .  A
C571        F574   1.358       .  S
C572        F576   1.358       .  S
C579        C580   1.400       .  A
C579        C584   1.391       .  A
C579        F597   1.358       .  S
C580        C585   1.475       .  S
C580        C581   1.407       .  A
C581        C582   1.403       .  A
C581        F586   1.358       .  S
C582        C583   1.408       .  A
C582       F1874   1.358       .  S
C583        C584   1.410       .  A
C584        F587   1.359       .  S
C585        C588   1.402       .  A
C585        C592   1.405       .  A
C588        C589   1.398       .  A
C588        F593   1.358       .  S
C589        C590   1.411       .  A
C589        F595   1.358       .  S
C590        C591   1.406       .  A
C591        C592   1.397       .  A
C591        F594   1.358       .  S
C592        F596   1.358       .  S
F598       C1858   1.358       .  S
C599        C600   1.400       .  A
C599        C604   1.395       .  A
C599        F617   1.358       .  S
C600        C605   1.477       .  S
C600        C601   1.407       .  A
C601        C602   1.402       .  A
C601        F606   1.358       .  S
C602        C603   1.405       .  A
C602        F618   1.357       .  S
C603        C604   1.411       .  A
C604        F607   1.359       .  S
C605        C608   1.401       .  A
C605        C612   1.407       .  A
C608        C609   1.395       .  A
C608        F613   1.358       .  S
C609        C610   1.410       .  A
C609       F1253   1.358       .  S
C610        C611   1.406       .  A
C611        C612   1.401       .  A
C611        F614   1.358       .  S
C612        F616   1.358       .  S
F615       C1247   1.358   1_545  S
C619        C620   1.400       .  A
C619        C624   1.394       .  A
C619        F637   1.358       .  S
C620        C625   1.478       .  S
C620        C621   1.407       .  A
C621        C622   1.402       .  A
C621        F626   1.358       .  S
C622        C623   1.408       .  A
C622        F638   1.357       .  S
C623        C624   1.412       .  A
C624        F627   1.358       .  S
C625        C628   1.407       .  A
C625        C632   1.402       .  A
C628        C629   1.400       .  A
C628        F633   1.358       .  S
C629        C630   1.406       .  A
C629        F635   1.358       .  S
C630        C631   1.411       .  A
C631        C632   1.396       .  A
C631        F634   1.358       .  S
C632        F636   1.358       .  S
Zn639       O643   1.962       .  S
Zn639       O644   2.036       .  S
Zn639       O648   2.020       .  S
Zn639       O655   2.025       .  S
Zn640       O643   1.935       .  S
Zn640       O645   1.962       .  S
Zn640       O647   1.963       .  S
Zn640       O651   1.988       .  S
Zn641       O643   1.972       .  S
Zn641       O646   2.045       .  S
Zn641       O649   2.047       .  S
Zn641       O652   2.046       .  S
Zn642       O643   1.956       .  S
Zn642       O650   2.020       .  S
Zn642       O653   2.031       .  S
Zn642       O654   2.024       .  S
O644        C656   1.274       .  A
O645        C657   1.266       .  A
O646        C658   1.278       .  A
O647        C656   1.267       .  A
O648        C658   1.275       .  A
O649        C657   1.275       .  A
O650        C659   1.275       .  A
O651        C660   1.269       .  A
O652        C659   1.279       .  A
O653        C660   1.274       .  A
O654        C661   1.275       .  A
O655        C661   1.276       .  A
C656       C1261   1.477       .  S
C657       C1241   1.474       .  S
C658       C1188   1.495       .  S
C659       C1208   1.496       .  S
C660       C1228   1.478       .  S
C661       C1161   1.486       .  S
C662        H663   1.107       .  S
C662        C668   1.542       .  S
C662        C667   1.550       .  S
C662        C666   1.534       .  S
C664        H665   1.107       .  S
C664        C670   1.533       .  S
C664        C669   1.547       .  S
C664        C671   1.546       .  S
C666        C669   1.372       .  D
C666       C1181   1.494       .  S
C667        C670   1.371       .  D
C667       C1168   1.486       .  S
C668        C671   1.383       .  D
C668       C1201   1.498       .  S
C669       C1128   1.481       .  S
C670       C1108   1.492       .  S
C671       C1148   1.500       .  S
Zn672       O676   1.947       .  S
Zn672       O677   1.991       .  S
Zn672       O681   2.020       .  S
Zn672       O688   2.001       .  S
Zn673       O676   1.986       .  S
Zn673       O678   2.066       .  S
Zn673       O680   2.083       .  S
Zn673       O684   2.085       .  S
Zn674       O676   1.943       .  S
Zn674       O679   2.005       .  S
Zn674       O682   1.973       .  S
Zn674       O685   1.991       .  S
Zn675       O676   1.946       .  S
Zn675       O683   2.003       .  S
Zn675       O686   1.982       .  S
Zn675       O687   1.992       .  S
O677        C689   1.272       .  A
O678        C690   1.280       .  A
O679        C691   1.270       .  A
O680        C689   1.283       .  A
O681        C691   1.272       .  A
O682        C690   1.270       .  A
O683        C692   1.270       .  A
O684        C693   1.282       .  A
O685        C692   1.269       .  A
O686        C693   1.271       .  A
O687        C694   1.270       .  A
O688        C694   1.271       .  A
C689       C1101   1.500       .  S
C690       C1121   1.489       .  S
C691       C1081   1.486       .  S
C692       C1068   1.483       .  S
C693       C1141   1.491       .  S
C694       C1048   1.482       .  S
Zn695       O699   1.960       .  S
Zn695       O700   2.023       .  S
Zn695       O704   2.031       .  S
Zn695       O711   2.030       .  S
Zn696       O699   1.958       .  S
Zn696       O701   2.038       .  S
Zn696       O703   2.018       .  S
Zn696       O707   2.031       .  S
Zn697       O699   1.936       .  S
Zn697       O702   1.975       .  S
Zn697       O705   1.978       .  S
Zn697       O708   1.993       .  S
Zn698       O699   1.945       .  S
Zn698       O706   2.012       .  S
Zn698       O709   2.006       .  S
Zn698       O710   2.015       .  S
O700        C712   1.276       .  A
O701        C713   1.274       .  A
O702        C714   1.268       .  A
O703        C712   1.276       .  A
O704        C714   1.275       .  A
O705        C713   1.269       .  A
O706        C715   1.272       .  A
O707        C716   1.277       .  A
O708        C715   1.270       .  A
O709        C716   1.273       .  A
O710        C717   1.274       .  A
O711        C717   1.276       .  A
C712        C948   1.486       .  S
C713       C1021   1.477       .  S
C714       C1001   1.481       .  S
C715        C988   1.480       .  S
C716        C921   1.491       .  S
C717        C961   1.480       .  S
C718        H719   1.110       .  S
C718        C724   1.548       .  S
C718        C723   1.538       .  S
C718        C722   1.550       .  S
C720        H721   1.110       .  S
C720        C726   1.542       .  S
C720        C725   1.525       .  S
C720        C727   1.537       .  S
C722        C725   1.372       .  D
C722        C868   1.484       .  S
C723        C726   1.374       .  D
C723        C901   1.495       .  S
C724        C727   1.385       .  D
C724        C888   1.507       .  S
C725        C941   1.487       .  S
C726        C968   1.485       .  S
C727        C928   1.492       .  S
Zn728       O732   1.960       .  S
Zn728       O733   2.033       .  S
Zn728       O737   2.029       .  S
Zn728       O744   2.018       .  S
Zn729       O732   1.938       .  S
Zn729       O734   1.965       .  S
Zn729       O736   1.981       .  S
Zn729       O740   1.971       .  S
Zn730       O732   1.969       .  S
Zn730       O735   2.036       .  S
Zn730       O738   2.028       .  S
Zn730       O741   2.033       .  S
Zn731       O732   1.962       .  S
Zn731       O739   2.023       .  S
Zn731       O742   2.037       .  S
Zn731       O743   2.021       .  S
O733        C745   1.274       .  A
O734        C746   1.267       .  A
O735        C747   1.277       .  A
O736        C745   1.268       .  A
O737        C747   1.276       .  A
O738        C746   1.274       .  A
O739        C748   1.276       .  A
O740        C749   1.267       .  A
O741        C748   1.276       .  A
O742        C749   1.274       .  A
O743        C750   1.276       .  A
O744        C750   1.275       .  A
C745        C841   1.484       .  S
C746        C808   1.473       .  S
C747        C881   1.495       .  S
C748        C908   1.493       .  S
C749        C828   1.479       .  S
C750        C861   1.483       .  S
Zn751      O1393   1.961   1_565  S
Zn751       O760   2.011   1_556  S
Zn751       O767   2.027       .  S
Zn752       O755   1.950       .  S
Zn752       O757   1.985   1_556  S
Zn752      O2035   2.001   1_456  S
Zn752       O763   2.014       .  S
Zn753      O2034   1.996   1_456  S
Zn753       O764   2.046       .  S
Zn754       O755   1.911       .  S
Zn754       O765   1.965       .  S
Zn754      O1404   1.955   1_455  S
O755      Zn1389   1.958   1_455  S
O756        C768   1.273       .  A
O757        C769   1.270       .  A
O758      Zn2029   2.006   1_554  S
O758        C770   1.273       .  A
O759      Zn2028   2.005   1_554  S
O759        C768   1.272       .  A
O760        C770   1.274       .  A
O761        C769   1.273       .  A
O762        C771   1.267       .  A
O763        C772   1.272       .  A
O764        C771   1.275       .  A
O765        C772   1.266       .  A
O766      Zn1392   1.969       .  S
O766        C773   1.268       .  A
O767        C773   1.274       .  A
C768        C848   1.475       .  S
C769        C801   1.477       .  S
C770        C821   1.486       .  S
C771       C1088   1.484       .  S
C772       C1041   1.476       .  S
C773       C1061   1.474       .  S
Zn774       O778   1.925   1_445  S
Zn774       O779   1.977   1_545  S
Zn774      O2059   1.976   1_445  S
Zn775       O778   1.959   1_455  S
Zn775      O2056   2.002   1_455  S
Zn775       O782   2.021       .  S
Zn776      O2054   1.966       .  S
Zn776       O781   2.048       .  S
Zn776       O784   2.016       .  S
Zn777      O2061   2.004   1_455  S
Zn777       O788   2.003       .  S
Zn777       O789   2.032       .  S
O778      Zn2052   1.964       .  S
O779        C791   1.268       .  A
O780      Zn2051   1.999       .  S
O780        C792   1.273       .  A
O781        C793   1.276       .  A
O782        C791   1.273       .  A
O783      Zn2050   1.965       .  S
O783        C793   1.267       .  A
O784        C792   1.274       .  A
O785      Zn2053   2.008       .  S
O785        C794   1.273       .  A
O786        C795   1.273       .  A
O787        C794   1.275       .  A
O788        C795   1.273       .  A
O789        C796   1.274       .  A
O790        C796   1.267       .  A
C791       C1268   1.475       .  S
C792       C1008   1.485       .  S
C793       C1248   1.475       .  S
C794       C1028   1.482       .  S
C795        C981   1.486       .  S
C796       C1221   1.477       .  S
C797        C798   1.401       .  A
C797        C802   1.393       .  A
C797        F815   1.358       .  S
C798        C803   1.466       .  S
C798        C799   1.400       .  A
C799        C800   1.395       .  A
C799        F804   1.358       .  S
C800        C801   1.413       .  A
C800        F816   1.358       .  S
C801        C802   1.409       .  A
C802        F805   1.358       .  S
C803        C806   1.399       .  A
C803        C810   1.403       .  A
C806        C807   1.392       .  A
C806        F811   1.359       .  S
C807        C808   1.411       .  A
C807        F813   1.359       .  S
C808        C809   1.406       .  A
C809        C810   1.397       .  A
C809        F812   1.357       .  S
C810        F814   1.358       .  S
C817        C818   1.402       .  A
C817        C822   1.397       .  A
C817        F835   1.358       .  S
C818        C823   1.474       .  S
C818        C819   1.401       .  A
C819        C820   1.396       .  A
C819        F824   1.358       .  S
C820        C821   1.413       .  A
C820        F836   1.358       .  S
C821        C822   1.413       .  A
C822        F825   1.358       .  S
C823        C826   1.401       .  A
C823        C830   1.405       .  A
C826        C827   1.394       .  A
C826        F831   1.358       .  S
C827        C828   1.411       .  A
C827        F833   1.358       .  S
C828        C829   1.407       .  A
C829        C830   1.400       .  A
C829        F832   1.357       .  S
C830        F834   1.358       .  S
C837        C838   1.402       .  A
C837        C842   1.399       .  A
C837        F855   1.358       .  S
C838        C843   1.470       .  S
C838        C839   1.398       .  A
C839        C840   1.395       .  A
C839        F844   1.358       .  S
C840        C841   1.414       .  A
C840        F856   1.358       .  S
C841        C842   1.410       .  A
C842        F845   1.358       .  S
C843        C846   1.402       .  A
C843        C850   1.401       .  A
C846        C847   1.397       .  A
C846        F851   1.358       .  S
C847        C848   1.407       .  A
C847        F853   1.358       .  S
C848        C849   1.410       .  A
C849        C850   1.397       .  A
C849        F852   1.358       .  S
C850        F854   1.358       .  S
C857       C2134   1.407       .  A
C857        C862   1.399       .  A
C857        F875   1.358       .  S
C858        C863   1.483       .  S
C858       C2133   1.406   1_455  A
C858        C859   1.405   1_455  A
C859       C2136   1.399       .  A
C859        F864   1.358   1_655  S
C860       C2135   1.399       .  A
C860        C861   1.410       .  A
C860        F876   1.358       .  S
C861        C862   1.408       .  A
C862        F865   1.358       .  S
C863        C866   1.406       .  A
C863        C870   1.406       .  A
C866        C867   1.399       .  A
C866        F871   1.358       .  S
C867        C868   1.406       .  A
C867        F873   1.358       .  S
C868        C869   1.403       .  A
C869        C870   1.398       .  A
C869        F872   1.354       .  S
C870        F874   1.358       .  S
C877        C882   1.402       .  A
C878        C883   1.489       .  S
C879        C880   1.402       .  A
C879        F884   1.358       .  S
C880        C881   1.414       .  A
C880        F896   1.358       .  S
C881        C882   1.413       .  A
C882        F885   1.358       .  S
C883        C886   1.406       .  A
C883        C890   1.405       .  A
C886        C887   1.403       .  A
C886        F891   1.358       .  S
C887        C888   1.409       .  A
C887        F893   1.352       .  S
C888        C889   1.413       .  A
C889        C890   1.400       .  A
C889        F892   1.358       .  S
C890        F894   1.358       .  S
C897        C898   1.406       .  A
C897        C902   1.397       .  A
C897        F915   1.358       .  S
C898        C903   1.492       .  S
C898        C899   1.410       .  A
C899        C900   1.406       .  A
C899        F904   1.358       .  S
C900        C901   1.407       .  A
C900        F916   1.357       .  S
C901        C902   1.407       .  A
C902        F905   1.356       .  S
C903        C906   1.408       .  A
C903        C910   1.406       .  A
C906        C907   1.405       .  A
C906        F911   1.358       .  S
C907        C908   1.413       .  A
C907        F913   1.358       .  S
C908        C909   1.411       .  A
C909        C910   1.397       .  A
C909        F912   1.358       .  S
C910        F914   1.358       .  S
C917        C922   1.399       .  A
C917        F935   1.358       .  S
C918        C923   1.479       .  S
C919        C920   1.398       .  A
C920        C921   1.414       .  A
C920        F936   1.358       .  S
C921        C922   1.411       .  A
C922        F925   1.358       .  S
C923        C926   1.404       .  A
C923        C930   1.404       .  A
C926        C927   1.395       .  A
C926        F931   1.358       .  S
C927        C928   1.405       .  A
C927        F933   1.352       .  S
C928        C929   1.410       .  A
C929        C930   1.398       .  A
C929        F932   1.358       .  S
C930        F934   1.358       .  S
C937        C938   1.406       .  A
C937        C942   1.399       .  A
C937        F955   1.358       .  S
C938        C943   1.486       .  S
C938        C939   1.409       .  A
C939        C940   1.401       .  A
C939        F944   1.358       .  S
C940        C941   1.403       .  A
C940        F956   1.357       .  S
C941        C942   1.407       .  A
C942        F945   1.357       .  S
C943       C2222   1.404   1_455  A
C943        C950   1.406   1_455  A
C946       C2219   1.404       .  A
C946        C947   1.398       .  A
C946        F951   1.358       .  S
C947        C948   1.410       .  A
C947        F953   1.358       .  S
C948        C949   1.411       .  A
C949       C2226   1.400       .  A
C949        F952   1.358       .  S
C950       C2225   1.403       .  A
C950        F954   1.358   1_655  S
C957        C958   1.403       .  A
C957        C962   1.399       .  A
C957        F975   1.358       .  S
C958        C963   1.481       .  S
C958        C959   1.406       .  A
C959        C960   1.401       .  A
C959        F964   1.358       .  S
C960        C961   1.407       .  A
C960        F976   1.358       .  S
C961        C962   1.409       .  A
C962        F965   1.358       .  S
C963        C966   1.405       .  A
C963        C970   1.405       .  A
C966        C967   1.399       .  A
C966        F971   1.358       .  S
C967        C968   1.405       .  A
C967        F973   1.354       .  S
C968        C969   1.406       .  A
C969        C970   1.399       .  A
C969        F972   1.358       .  S
C970        F974   1.358       .  S
C977        C978   1.401       .  A
C977        C982   1.398       .  A
C977        F995   1.358       .  S
C978        C983   1.473       .  S
C978        C979   1.401       .  A
C979        C980   1.394       .  A
C979        F984   1.358       .  S
C980        C981   1.412       .  A
C980        F996   1.358       .  S
C981        C982   1.414       .  A
C982        F985   1.358       .  S
C983        C986   1.402       .  A
C983        C990   1.402       .  A
C986        C987   1.395       .  A
C986        F991   1.358       .  S
C987        C988   1.409       .  A
C987        F993   1.358       .  S
C988        C989   1.411       .  A
C989        C990   1.398       .  A
C989        F992   1.358       .  S
C990        F994   1.358       .  S
C997        C998   1.399       .  A
C997       C1002   1.395       .  A
C997       F1015   1.358       .  S
C998       C1003   1.470       .  S
C998        C999   1.403       .  A
C999       C1000   1.397       .  A
C999       F1004   1.358       .  S
C1000      C1001   1.409       .  A
C1000      F1016   1.358       .  S
C1001      C1002   1.413       .  A
C1002      F1005   1.358       .  S
C1003      C1006   1.399       .  A
C1003      C1010   1.401       .  A
C1006      C1007   1.393       .  A
C1006      F1011   1.358       .  S
C1007      C1008   1.413       .  A
C1007      F1013   1.358       .  S
C1008      C1009   1.413       .  A
C1009      C1010   1.399       .  A
C1009      F1012   1.358       .  S
C1010      F1014   1.358       .  S
C1017      C1018   1.400       .  A
C1017      C1022   1.395       .  A
C1017      F1035   1.358       .  S
C1018      C1023   1.472       .  S
C1018      C1019   1.404       .  A
C1019      C1020   1.401       .  A
C1019      F1024   1.357       .  S
C1020      C1021   1.407       .  A
C1020      F1036   1.358       .  S
C1021      C1022   1.410       .  A
C1022      F1025   1.358       .  S
C1023      C1026   1.402       .  A
C1023      C1030   1.400       .  A
C1026      C1027   1.398       .  A
C1026      F1031   1.358       .  S
C1027      C1028   1.409       .  A
C1027      F1033   1.358       .  S
C1028      C1029   1.412       .  A
C1029      C1030   1.398       .  A
C1029      F1032   1.358       .  S
C1030      F1034   1.358       .  S
C1037      C1038   1.398       .  A
C1037      C1042   1.393       .  A
C1037      F1055   1.358       .  S
C1038      C1043   1.465       .  S
C1038      C1039   1.402       .  A
C1039      C1040   1.395       .  A
C1039      F1044   1.358       .  S
C1040      C1041   1.408       .  A
C1040      F1056   1.358       .  S
C1041      C1042   1.413       .  A
C1042      F1045   1.358       .  S
C1043      C1046   1.400       .  A
C1043      C1050   1.398       .  A
C1046      C1047   1.394       .  A
C1046      F1051   1.358       .  S
C1047      C1048   1.412       .  A
C1047      F1053   1.358       .  S
C1048      C1049   1.413       .  A
C1049      C1050   1.394       .  A
C1049      F1052   1.358       .  S
C1050      F1054   1.358       .  S
C1057      C1058   1.404       .  A
C1057      C1062   1.398       .  A
C1057      F1075   1.358       .  S
C1058      C1063   1.469       .  S
C1058      C1059   1.400       .  A
C1059      C1060   1.392       .  A
C1059      F1064   1.358       .  S
C1060      C1061   1.411       .  A
C1061      C1062   1.407       .  A
C1062      F1065   1.358       .  S
C1063      C1066   1.400       .  A
C1063      C1070   1.401       .  A
C1066      C1067   1.394       .  A
C1066      F1071   1.358       .  S
C1067      C1068   1.413       .  A
C1067      F1073   1.358       .  S
C1068      C1069   1.412       .  A
C1069      C1070   1.396       .  A
C1069      F1072   1.358       .  S
C1070      F1074   1.358       .  S
C1077      C1078   1.402       .  A
C1077      C1082   1.399       .  A
C1077      F1095   1.358       .  S
C1078      C1083   1.472       .  S
C1078      C1079   1.400       .  A
C1079      C1080   1.398       .  A
C1079      F1084   1.358       .  S
C1080      C1081   1.412       .  A
C1080      F1096   1.358       .  S
C1081      C1082   1.412       .  A
C1082      F1085   1.358       .  S
C1083      C1086   1.398       .  A
C1083      C1090   1.404       .  A
C1086      C1087   1.392       .  A
C1086      F1091   1.358       .  S
C1087      C1088   1.413       .  A
C1087      F2369   1.358       .  S
C1088      C1089   1.410       .  A
C1089      C1090   1.403       .  A
C1089      F1092   1.358       .  S
C1090      F1094   1.357       .  S
F1093      C2363   1.358       .  S
C1097      C2374   1.401       .  A
C1097      C1102   1.399   1_655  A
C1097      F2391   1.358       .  S
C1098      C1103   1.488       .  S
C1098      C2373   1.401       .  A
C1098      C2375   1.407       .  A
C1099      C2374   1.408   1_455  A
C1099      C1100   1.407       .  A
C1099      F1104   1.358       .  S
C1100      C1101   1.412       .  A
C1100      F1116   1.357       .  S
C1101      C1102   1.418       .  A
C1102      F1105   1.358       .  S
C1103      C1106   1.405       .  A
C1103      C1110   1.409       .  A
C1106      C1107   1.401       .  A
C1106      F1111   1.357       .  S
C1107      C1108   1.407       .  A
C1107      F1113   1.356       .  S
C1108      C1109   1.404       .  A
C1109      C1110   1.404       .  A
C1109      F1112   1.357       .  S
C1110      F1114   1.358       .  S
F1115      C2373   1.358       .  S
C1117      C1122   1.404       .  A
C1118      C1123   1.474       .  S
C1119      C1120   1.395   1_545  A
C1120      C1121   1.414       .  A
C1120      F1136   1.358       .  S
C1121      C1122   1.409       .  A
C1122      F1125   1.357       .  S
C1123      C1126   1.405       .  A
C1123      C1130   1.402       .  A
C1126      C1127   1.400       .  A
C1126      F1131   1.358       .  S
C1127      C1128   1.405       .  A
C1127      F1133   1.356       .  S
C1128      C1129   1.406       .  A
C1129      C1130   1.397       .  A
C1129      F1132   1.357       .  S
C1130      F1134   1.358       .  S
C1137      C1138   1.407       .  A
C1137      C1142   1.407       .  A
C1137      F1155   1.358       .  S
C1138      C1143   1.483       .  S
C1138      C1139   1.400       .  A
C1139      C1140   1.398       .  A
C1139      F1144   1.358       .  S
C1140      C1141   1.414       .  A
C1140      F1156   1.358       .  S
C1141      C1142   1.409       .  A
C1142      F1145   1.357       .  S
C1143      C1146   1.402       .  A
C1143      C1150   1.405       .  A
C1146      C1147   1.401       .  A
C1146      F1151   1.358       .  S
C1147      C1148   1.413       .  A
C1147      F1153   1.358       .  S
C1148      C1149   1.407       .  A
C1149      C1150   1.401       .  A
C1149      F1152   1.354       .  S
C1150      F1154   1.358       .  S
C1157      C2434   1.406   1_455  A
C1157      C1162   1.400       .  A
C1157      F2451   1.358   1_455  S
C1158      C1163   1.489       .  S
C1158      C2433   1.405       .  A
C1158      C2435   1.408       .  A
C1159      C2434   1.408   1_455  A
C1159      C1160   1.400       .  A
C1159      F1164   1.358       .  S
C1160      C1161   1.409       .  A
C1160      F1176   1.358       .  S
C1161      C1162   1.410       .  A
C1162      F1165   1.358       .  S
C1163      C1166   1.408       .  A
C1163      C1170   1.407       .  A
C1166      C1167   1.402       .  A
C1166      F1171   1.358       .  S
C1167      C1168   1.406       .  A
C1167      F1173   1.358       .  S
C1168      C1169   1.403       .  A
C1169      C1170   1.399       .  A
C1169      F1172   1.355       .  S
C1170      F1174   1.358       .  S
F1175      C2433   1.358       .  S
C1177      C1178   1.410       .  A
C1177      C1182   1.404       .  A
C1177      F1195   1.357       .  S
C1178      C1183   1.494       .  S
C1178      C1179   1.408       .  A
C1179      C1180   1.402       .  A
C1179      F1184   1.358       .  S
C1180      C1181   1.408       .  A
C1180      F1196   1.357       .  S
C1181      C1182   1.403       .  A
C1182      F1185   1.357       .  S
C1186      C1187   1.404       .  A
C1186      F1191   1.358       .  S
C1187      C1188   1.411       .  A
C1187      F1193   1.358       .  S
C1188      C1189   1.413       .  A
C1189      C1190   1.401       .  A
C1189      F1192   1.358       .  S
C1197      C1198   1.405       .  A
C1197      C1202   1.400       .  A
C1197      F1215   1.358       .  S
C1198      C1203   1.487       .  S
C1198      C1199   1.406       .  A
C1199      C1200   1.400       .  A
C1199      F1204   1.358       .  S
C1200      C1201   1.406       .  A
C1200      F1216   1.353       .  S
C1201      C1202   1.411       .  A
C1202      F1205   1.358       .  S
C1203      C1206   1.405       .  A
C1203      C1210   1.404       .  A
C1206      C1207   1.401       .  A
C1206      F1211   1.358       .  S
C1207      C1208   1.412       .  A
C1207      F1213   1.357       .  S
C1208      C1209   1.416       .  A
C1209      C1210   1.402       .  A
C1209      F1212   1.358       .  S
C1210      F1214   1.358       .  S
C1217      C1218   1.401       .  A
C1217      C1222   1.392       .  A
C1217      F1235   1.358       .  S
C1218      C1223   1.476       .  S
C1218      C1219   1.406       .  A
C1219      C1220   1.401       .  A
C1219      F1224   1.358       .  S
C1220      C1221   1.407       .  A
C1220      F2512   1.358       .  S
C1221      C1222   1.410       .  A
C1222      F1225   1.359       .  S
C1223      C1226   1.402       .  A
C1223      C1230   1.405       .  A
C1226      C1227   1.398       .  A
C1226      F1231   1.358       .  S
C1227      C1228   1.410       .  A
C1227      F1233   1.358       .  S
C1228      C1229   1.406       .  A
C1229      C1230   1.397       .  A
C1229      F1232   1.358       .  S
C1230      F1234   1.358       .  S
F1236      C2496   1.358       .  S
C1237      C1238   1.400       .  A
C1237      C1242   1.394       .  A
C1237      F1255   1.358       .  S
C1238      C1243   1.472       .  S
C1238      C1239   1.405       .  A
C1239      C1240   1.400       .  A
C1239      F1244   1.358       .  S
C1240      C1241   1.405       .  A
C1240      F1256   1.357       .  S
C1241      C1242   1.410       .  A
C1242      F1245   1.359       .  S
C1243      C1246   1.399       .  A
C1243      C1250   1.406       .  A
C1246      C1247   1.395       .  A
C1246      F1251   1.358       .  S
C1247      C1248   1.411       .  A
C1248      C1249   1.405       .  A
C1249      C1250   1.400       .  A
C1249      F1252   1.358       .  S
C1250      F1254   1.358       .  S
C1257      C1258   1.400       .  A
C1257      C1262   1.392       .  A
C1257      F1275   1.358       .  S
C1258      C1263   1.474       .  S
C1258      C1259   1.406       .  A
C1259      C1260   1.400       .  A
C1259      F1264   1.358       .  S
C1260      C1261   1.407       .  A
C1260      F1276   1.358       .  S
C1261      C1262   1.411       .  A
C1262      F1265   1.359       .  S
C1263      C1266   1.406       .  A
C1263      C1270   1.402       .  A
C1266      C1267   1.397       .  A
C1266      F1271   1.358       .  S
C1267      C1268   1.406       .  A
C1267      F1273   1.358       .  S
C1268      C1269   1.410       .  A
C1269      C1270   1.395       .  A
C1269      F1272   1.358       .  S
C1270      F1274   1.358       .  S
Zn1277     O1281   1.964       .  S
Zn1277     O1282   2.046       .  S
Zn1277     O1286   2.015       .  S
Zn1277     O1293   2.026       .  S
Zn1278     O1281   1.937       .  S
Zn1278     O1283   1.960       .  S
Zn1278     O1285   1.980       .  S
Zn1278     O1289   1.986       .  S
Zn1279     O1281   1.977       .  S
Zn1279     O1284   2.046       .  S
Zn1279     O1287   2.060       .  S
Zn1279     O1290   2.044       .  S
Zn1280     O1281   1.960       .  S
Zn1280     O1288   2.021       .  S
Zn1280     O1291   2.024       .  S
Zn1280     O1292   2.018       .  S
O1282      C1294   1.275       .  A
O1283      C1295   1.266       .  A
O1284      C1296   1.278       .  A
O1285      C1294   1.268       .  A
O1286      C1296   1.275       .  A
O1287      C1295   1.277       .  A
O1288      C1297   1.275       .  A
O1289      C1298   1.268       .  A
O1290      C1297   1.279       .  A
O1291      C1298   1.273       .  A
O1292      C1299   1.274       .  A
O1293      C1299   1.275       .  A
C1294      C1899   1.484       .  S
C1295      C1879   1.479       .  S
C1296      C1826   1.490       .  S
C1297      C1846   1.496       .  S
C1298      C1866   1.473       .  S
C1299      C1799   1.477       .  S
C1300      H1301   1.107       .  S
C1300      C1306   1.543       .  S
C1300      C1305   1.547       .  S
C1300      C1304   1.532       .  S
C1302      H1303   1.107       .  S
C1302      C1308   1.537       .  S
C1302      C1307   1.547       .  S
C1302      C1309   1.546       .  S
C1304      C1307   1.373       .  D
C1304      C1819   1.491       .  S
C1305      C1308   1.372       .  D
C1305      C1806   1.487       .  S
C1306      C1309   1.383       .  D
C1306      C1839   1.496       .  S
C1307      C1766   1.482       .  S
C1308      C1746   1.492       .  S
C1309      C1786   1.504       .  S
Zn1310     O1314   1.949       .  S
Zn1310     O1315   2.007       .  S
Zn1310     O1319   2.020       .  S
Zn1310     O1326   2.000       .  S
Zn1311     O1314   1.980       .  S
Zn1311     O1316   2.058       .  S
Zn1311     O1318   2.067       .  S
Zn1311     O1322   2.081       .  S
Zn1312     O1314   1.951       .  S
Zn1312     O1317   2.018       .  S
Zn1312     O1320   1.981       .  S
Zn1312     O1323   1.988       .  S
Zn1313     O1314   1.950       .  S
Zn1313     O1321   1.999       .  S
Zn1313     O1324   1.991       .  S
Zn1313     O1325   1.992       .  S
O1315      C1327   1.274       .  A
O1316      C1328   1.279       .  A
O1317      C1329   1.272       .  A
O1318      C1327   1.281       .  A
O1319      C1329   1.273       .  A
O1320      C1328   1.271       .  A
O1321      C1330   1.270       .  A
O1322      C1331   1.281       .  A
O1323      C1330   1.268       .  A
O1324      C1331   1.271       .  A
O1325      C1332   1.270       .  A
O1326      C1332   1.272       .  A
C1327      C1739   1.493       .  S
C1328      C1759   1.476       .  S
C1329      C1719   1.493       .  S
C1330      C1706   1.478       .  S
C1331      C1779   1.492       .  S
C1332      C1686   1.477       .  S
Zn1333     O1337   1.965       .  S
Zn1333     O1338   2.038       .  S
Zn1333     O1342   2.033       .  S
Zn1333     O1349   2.042       .  S
Zn1334     O1337   1.969       .  S
Zn1334     O1339   2.049       .  S
Zn1334     O1341   2.036       .  S
Zn1334     O1345   2.035       .  S
Zn1335     O1337   1.934       .  S
Zn1335     O1340   1.973       .  S
Zn1335     O1343   1.972       .  S
Zn1335     O1346   1.993       .  S
Zn1336     O1337   1.955       .  S
Zn1336     O1344   2.032       .  S
Zn1336     O1347   1.996       .  S
Zn1336     O1348   2.016       .  S
O1338      C1350   1.277       .  A
O1339      C1351   1.276       .  A
O1340      C1352   1.269       .  A
O1341      C1350   1.277       .  A
O1342      C1352   1.275       .  A
O1343      C1351   1.268       .  A
O1344      C1353   1.273       .  A
O1345      C1354   1.278       .  A
O1346      C1353   1.269       .  A
O1347      C1354   1.273       .  A
O1348      C1355   1.274       .  A
O1349      C1355   1.277       .  A
C1350      C1586   1.495       .  S
C1351      C1659   1.489       .  S
C1352      C1639   1.485       .  S
C1353      C1626   1.484       .  S
C1354      C1559   1.488       .  S
C1355      C1599   1.482       .  S
C1356      H1357   1.110       .  S
C1356      C1362   1.544       .  S
C1356      C1361   1.535       .  S
C1356      C1360   1.547       .  S
C1358      H1359   1.110       .  S
C1358      C1364   1.545       .  S
C1358      C1363   1.529       .  S
C1358      C1365   1.541       .  S
C1360      C1363   1.371       .  D
C1360      C1506   1.485       .  S
C1361      C1364   1.375       .  D
C1361      C1539   1.492       .  S
C1362      C1365   1.385       .  D
C1362      C1526   1.503       .  S
C1363      C1579   1.487       .  S
C1364      C1606   1.488       .  S
C1365      C1566   1.496       .  S
Zn1366     O1370   1.959       .  S
Zn1366     O1371   2.028       .  S
Zn1366     O1375   2.024       .  S
Zn1366     O1382   2.013       .  S
Zn1367     O1370   1.938       .  S
Zn1367     O1372   1.968       .  S
Zn1367     O1374   1.979       .  S
Zn1367     O1378   1.977       .  S
Zn1368     O1370   1.968       .  S
Zn1368     O1373   2.044       .  S
Zn1368     O1376   2.037       .  S
Zn1368     O1379   2.031       .  S
Zn1369     O1370   1.963       .  S
Zn1369     O1377   2.022       .  S
Zn1369     O1380   2.035       .  S
Zn1369     O1381   2.025       .  S
O1371      C1383   1.273       .  A
O1372      C1384   1.267       .  A
O1373      C1385   1.278       .  A
O1374      C1383   1.269       .  A
O1375      C1385   1.276       .  A
O1376      C1384   1.275       .  A
O1377      C1386   1.276       .  A
O1378      C1387   1.267       .  A
O1379      C1386   1.276       .  A
O1380      C1387   1.273       .  A
O1381      C1388   1.276       .  A
O1382      C1388   1.274       .  A
C1383      C1479   1.480       .  S
C1384      C1446   1.485       .  S
C1385      C1519   1.497       .  S
C1386      C1546   1.490       .  S
C1387      C1466   1.474       .  S
C1388      C1499   1.483       .  S
Zn1389     O2032   2.008   1_556  S
Zn1389     O1398   2.012   1_556  S
Zn1389     O1405   2.032       .  S
Zn1390     O1393   1.949       .  S
Zn1390     O1395   1.990   1_556  S
Zn1390     O1401   2.007       .  S
Zn1391     O2031   1.953       .  S
Zn1391     O2037   1.998   1_556  S
Zn1391     O1402   2.052       .  S
Zn1392     O1393   1.922   1_565  S
Zn1392     O2038   1.978       .  S
Zn1392     O1403   1.978   1_565  S
O1393     Zn2029   1.955   1_545  S
O1394     Zn2027   2.010   1_544  S
O1394      C1406   1.272       .  A
O1395      C1407   1.270       .  A
O1396      C1408   1.273       .  A
O1397      C1406   1.271       .  A
O1398      C1408   1.274       .  A
O1399     Zn2029   2.005   1_544  S
O1399      C1407   1.273       .  A
O1400     Zn2030   1.967       .  S
O1400      C1409   1.267       .  A
O1401      C1410   1.271       .  A
O1402      C1409   1.275       .  A
O1403      C1410   1.268       .  A
O1404      C1411   1.266       .  A
O1405      C1411   1.274       .  A
C1406      C1486   1.485       .  S
C1407      C1439   1.479       .  S
C1408      C1459   1.482       .  S
C1409      C1726   1.482       .  S
C1410      C1679   1.478       .  S
C1411      C1699   1.481       .  S
Zn1412     O1416   1.926       .  S
Zn1412     O1417   1.987       .  S
Zn1412     O2066   1.965       .  S
Zn1413     O1416   1.961       .  S
Zn1413     O1420   2.037       .  S
Zn1413     O2062   2.016       .  S
Zn1414     O1419   2.048       .  S
Zn1414     O1422   2.015       .  S
Zn1414     O2063   2.034       .  S
Zn1415     O2054   1.954   1_545  S
Zn1415     O1426   2.003       .  S
Zn1415     O1427   2.025       .  S
O1416     Zn2053   1.963       .  S
O1417      C1429   1.269       .  A
O1418      C1430   1.273       .  A
O1419      C1431   1.276       .  A
O1420      C1429   1.275       .  A
O1421      C1431   1.268       .  A
O1422      C1430   1.274       .  A
O1423      C1432   1.273       .  A
O1424     Zn2051   2.015       .  S
O1424      C1433   1.273   1_565  A
O1425     Zn2052   2.029   1_545  S
O1425      C1432   1.276       .  A
O1426      C1433   1.272       .  A
O1427      C1434   1.273       .  A
O1428     Zn2050   1.965   1_545  S
O1428      C1434   1.267       .  A
C1429      C1906   1.482       .  S
C1430      C1646   1.485       .  S
C1431      C1886   1.476       .  S
C1432      C1666   1.484       .  S
C1433      C1619   1.487       .  S
C1434      C1859   1.475       .  S
C1435      C1436   1.401       .  A
C1435      C1440   1.394       .  A
C1435      F1453   1.358       .  S
C1436      C1441   1.471       .  S
C1436      C1437   1.402       .  A
C1437      C1438   1.396       .  A
C1437      F1442   1.358       .  S
C1438      C1439   1.412       .  A
C1438      F1454   1.358       .  S
C1439      C1440   1.410       .  A
C1440      F1443   1.358       .  S
C1441      C1444   1.399       .  A
C1441      C1448   1.403       .  A
C1444      C1445   1.393       .  A
C1444      F1449   1.359       .  S
C1445      C1446   1.416       .  A
C1445      F1451   1.358       .  S
C1446      C1447   1.410       .  A
C1447      C1448   1.398       .  A
C1447      F1450   1.357       .  S
C1448      F1452   1.358       .  S
C1455      C1456   1.402       .  A
C1455      C1460   1.398       .  A
C1455      F1473   1.358       .  S
C1456      C1461   1.473       .  S
C1456      C1457   1.401       .  A
C1457      C1458   1.396       .  A
C1457      F1462   1.358       .  S
C1458      C1459   1.411       .  A
C1458      F1474   1.358       .  S
C1459      C1460   1.411       .  A
C1460      F1463   1.358       .  S
C1461      C1464   1.401       .  A
C1461      C1468   1.405       .  A
C1464      C1465   1.395       .  A
C1464      F1469   1.358       .  S
C1465      C1466   1.409       .  A
C1465      F1471   1.358       .  S
C1466      C1467   1.406       .  A
C1467      C1468   1.400       .  A
C1467      F1470   1.358       .  S
C1468      F1472   1.358       .  S
C1475      C1476   1.406       .  A
C1475      C1480   1.399       .  A
C1475      F1493   1.358       .  S
C1476      C1481   1.477       .  S
C1476      C1477   1.402       .  A
C1477      C1478   1.394       .  A
C1477      F1482   1.358       .  S
C1478      C1479   1.411       .  A
C1478      F1494   1.358       .  S
C1479      C1480   1.408       .  A
C1480      F1483   1.358       .  S
C1481      C1484   1.403       .  A
C1481      C1488   1.403       .  A
C1484      C1485   1.396       .  A
C1484      F1489   1.358       .  S
C1485      C1486   1.412       .  A
C1485      F1491   1.358       .  S
C1486      C1487   1.412       .  A
C1487      C1488   1.396       .  A
C1487      F1490   1.358       .  S
C1488      F1492   1.358       .  S
C1495      C1500   1.399       .  A
C1495      F1513   1.358       .  S
C1496      C1501   1.485       .  S
C1496      C1497   1.405       .  A
C1497      F1502   1.358       .  S
C1498      C1499   1.410       .  A
C1498      F1514   1.358       .  S
C1499      C1500   1.408       .  A
C1500      F1503   1.358       .  S
C1501      C1504   1.407       .  A
C1501      C1508   1.407       .  A
C1504      C1505   1.400       .  A
C1504      F1509   1.358       .  S
C1505      C1506   1.406       .  A
C1505      F1511   1.358       .  S
C1506      C1507   1.404       .  A
C1507      C1508   1.399       .  A
C1507      F1510   1.354       .  S
C1508      F1512   1.358       .  S
C1515      C2154   1.406   1_545  A
C1515      C1520   1.404       .  A
C1515      F2171   1.358       .  S
C1516      C1521   1.482       .  S
C1516      C2153   1.404       .  A
C1516      C2155   1.402       .  A
C1517      C2154   1.403   1_545  A
C1517      C1518   1.400       .  A
C1517      F1522   1.358   1_545  S
C1518      C1519   1.414       .  A
C1518      F1534   1.358       .  S
C1519      C1520   1.413       .  A
C1520      F1523   1.358       .  S
C1521      C1524   1.403       .  A
C1521      C1528   1.403       .  A
C1524      C1525   1.400       .  A
C1524      F1529   1.358       .  S
C1525      C1526   1.409       .  A
C1525      F1531   1.352       .  S
C1526      C1527   1.413       .  A
C1527      C1528   1.400       .  A
C1527      F1530   1.358       .  S
C1528      F1532   1.358       .  S
F1533      C2153   1.358       .  S
C1535      C1536   1.406       .  A
C1535      C1540   1.397       .  A
C1535      F1553   1.358       .  S
C1536      C1541   1.489       .  S
C1536      C1537   1.409       .  A
C1537      C1538   1.404       .  A
C1537      F1542   1.358       .  S
C1538      C1539   1.406       .  A
C1538      F1554   1.357       .  S
C1539      C1540   1.407       .  A
C1540      F1543   1.356       .  S
C1541      C1544   1.407       .  A
C1541      C1548   1.406       .  A
C1544      C1545   1.403       .  A
C1544      F1549   1.358       .  S
C1545      C1546   1.411       .  A
C1545      F1551   1.358       .  S
C1546      C1547   1.411       .  A
C1547      C1548   1.399       .  A
C1547      F1550   1.358       .  S
C1548      F1552   1.358       .  S
C1555      C2194   1.406   1_545  A
C1555      C1560   1.398       .  A
C1555      F1573   1.358   1_545  S
C1556      C1561   1.479       .  S
C1556      C2193   1.405       .  A
C1556      C2195   1.401       .  A
C1557      C2194   1.402   1_545  A
C1557      C1558   1.397       .  A
C1557      F2200   1.358   1_545  S
C1558      C1559   1.415       .  A
C1558      F1574   1.358       .  S
C1559      C1560   1.410       .  A
C1560      F1563   1.358       .  S
C1561      C1564   1.404       .  A
C1561      C1568   1.404       .  A
F1562      C2195   1.358       .  S
C1564      C1565   1.397       .  A
C1564      F1569   1.358       .  S
C1565      C1566   1.407       .  A
C1565      F1571   1.352       .  S
C1566      C1567   1.411       .  A
C1567      C1568   1.397       .  A
C1567      F1570   1.358       .  S
C1568      F1572   1.358       .  S
C1575      C1576   1.405       .  A
C1575      C1580   1.399       .  A
C1575      F1593   1.358       .  S
C1576      C1581   1.486       .  S
C1576      C1577   1.408       .  A
C1577      C1578   1.402       .  A
C1577      F1582   1.358       .  S
C1578      C1579   1.403       .  A
C1578      F1594   1.357       .  S
C1579      C1580   1.407       .  A
C1580      F1583   1.357       .  S
C1581      C1588   1.405       .  A
C1584      C1585   1.403       .  A
C1584      F1589   1.358       .  S
C1585      C1586   1.412       .  A
C1585      F1591   1.358       .  S
C1586      C1587   1.412       .  A
C1587      F1590   1.358       .  S
C1588      F1592   1.358       .  S
C1595      C1596   1.404       .  A
C1595      C1600   1.400       .  A
C1595      F1613   1.358       .  S
C1596      C1601   1.483       .  S
C1596      C1597   1.406       .  A
C1597      C1598   1.402       .  A
C1597      F1602   1.358       .  S
C1598      C1599   1.407       .  A
C1598      F1614   1.358       .  S
C1599      C1600   1.409       .  A
C1600      F1603   1.358       .  S
C1601      C1604   1.404       .  A
C1601      C1608   1.406       .  A
C1604      C1605   1.400       .  A
C1604      F1609   1.358       .  S
C1605      C1606   1.405       .  A
C1605      F1611   1.354       .  S
C1606      C1607   1.406       .  A
C1607      C1608   1.401       .  A
C1607      F1610   1.358       .  S
C1608      F1612   1.358       .  S
C1615      C1616   1.404       .  A
C1615      C1620   1.400       .  A
C1615      F1633   1.358       .  S
C1616      C1621   1.479       .  S
C1616      C1617   1.403       .  A
C1617      C1618   1.395       .  A
C1617      F1622   1.358       .  S
C1618      C1619   1.412       .  A
C1618      F1634   1.358       .  S
C1619      C1620   1.413       .  A
C1620      F1623   1.358   1_545  S
C1621      C1624   1.406       .  A
C1621      C1628   1.402       .  A
C1624      C1625   1.399       .  A
C1624      F1629   1.358       .  S
C1625      C1626   1.409       .  A
C1625      F1631   1.358       .  S
C1626      C1627   1.412       .  A
C1627      C1628   1.397       .  A
C1627      F1630   1.358       .  S
C1628      F1632   1.358       .  S
C1635      C1636   1.397       .  A
C1635      C1640   1.394       .  A
C1635      F1653   1.358       .  S
C1636      C1641   1.468       .  S
C1636      C1637   1.402       .  A
C1637      C1638   1.398       .  A
C1637      F1642   1.358       .  S
C1638      C1639   1.411       .  A
C1638      F1654   1.358       .  S
C1639      C1640   1.416       .  A
C1640      F1643   1.358       .  S
C1641      C1644   1.399       .  A
C1641      C1648   1.399       .  A
C1644      C1645   1.396       .  A
C1644      F1649   1.358       .  S
C1645      C1646   1.413       .  A
C1645      F1651   1.358       .  S
C1646      C1647   1.413       .  A
C1647      C1648   1.397       .  A
C1647      F1650   1.358       .  S
C1648      F1652   1.358       .  S
C1655      C1656   1.398       .  A
C1655      C1660   1.393       .  A
C1655      F1673   1.358       .  S
C1656      C1661   1.475       .  S
C1656      C1657   1.404       .  A
C1657      C1658   1.403       .  A
C1657      F1662   1.358       .  S
C1658      C1659   1.412       .  A
C1658      F1674   1.357       .  S
C1659      C1660   1.415       .  A
C1660      F1663   1.358       .  S
C1661      C1664   1.403       .  A
C1661      C1668   1.401       .  A
C1664      C1665   1.398       .  A
C1664      F1669   1.358       .  S
C1665      C1666   1.409       .  A
C1665      F1671   1.358       .  S
C1666      C1667   1.413       .  A
C1667      C1668   1.399       .  A
C1667      F1670   1.358   1_655  S
C1668      F1672   1.358       .  S
C1675      C1676   1.397       .  A
C1675      C1680   1.393       .  A
C1675      F1693   1.358       .  S
C1676      C1681   1.462       .  S
C1676      C1677   1.400       .  A
C1677      C1678   1.396       .  A
C1677      F1682   1.358       .  S
C1678      C1679   1.410       .  A
C1678      F1694   1.358       .  S
C1679      C1680   1.413       .  A
C1680      F1683   1.358       .  S
C1681      C1684   1.399       .  A
C1681      C1688   1.398       .  A
C1684      C1685   1.395       .  A
C1684      F1689   1.358       .  S
C1685      C1686   1.410       .  A
C1685      F1691   1.358       .  S
C1686      C1687   1.412       .  A
C1687      C1688   1.394       .  A
C1687      F1690   1.358       .  S
C1688      F1692   1.358       .  S
C1695      C1696   1.404       .  A
C1695      C1700   1.399       .  A
C1695      F1713   1.358       .  S
C1696      C1701   1.468       .  S
C1696      C1697   1.397       .  A
C1697      C1698   1.389       .  A
C1697      F1702   1.359       .  S
C1698      C1699   1.415       .  A
C1698      F2352   1.358       .  S
C1699      C1700   1.410       .  A
C1700      F1703   1.358       .  S
C1701      C1704   1.400       .  A
C1701      C1708   1.403       .  A
C1704      C1705   1.394       .  A
C1704      F1709   1.358       .  S
C1705      C1706   1.412       .  A
C1705      F1711   1.358       .  S
C1706      C1707   1.410       .  A
C1707      C1708   1.395       .  A
C1707      F1710   1.358       .  S
C1708      F1712   1.358       .  S
F1714      C2336   1.359       .  S
C1715      C1716   1.405       .  A
C1715      C1720   1.402       .  A
C1715      F1733   1.358       .  S
C1716      C1721   1.486       .  S
C1716      C1717   1.405       .  A
C1717      C1718   1.397       .  A
C1717      F1722   1.358       .  S
C1718      C1719   1.412       .  A
C1718      F1734   1.358       .  S
C1719      C1720   1.414       .  A
C1720      F1723   1.358       .  S
C1721      C1724   1.404       .  A
C1721      C1728   1.410       .  A
C1724      C1725   1.392       .  A
C1724      F1729   1.358       .  S
C1725      C1726   1.409       .  A
C1726      C1727   1.408       .  A
C1727      C1728   1.406       .  A
C1727      F1730   1.358       .  S
C1728      F1732   1.357       .  S
C1735      C1740   1.400       .  A
C1736      C1741   1.492       .  S
C1737      C1738   1.406       .  A
C1737      F1742   1.358       .  S
C1738      C1739   1.410       .  A
C1738      F1754   1.358       .  S
C1739      C1740   1.413       .  A
C1740      F1743   1.358       .  S
C1741      C1744   1.407       .  A
C1741      C1748   1.410       .  A
C1744      C1745   1.402       .  A
C1744      F1749   1.357       .  S
C1745      C1746   1.406       .  A
C1745      F1751   1.357       .  S
C1746      C1747   1.404       .  A
C1747      C1748   1.404       .  A
C1747      F1750   1.356       .  S
C1748      F1752   1.358       .  S
C1755      C2394   1.408       .  A
C1755      C1760   1.403       .  A
C1755      F2411   1.358       .  S
C1756      C1761   1.480       .  S
C1756      C2393   1.407   1_545  A
C1756      C2395   1.401       .  A
C1757      C2394   1.403       .  A
C1757      C1758   1.396       .  A
C1757      F2400   1.358       .  S
C1758      C1759   1.408       .  A
C1758      F1774   1.359       .  S
C1759      C1760   1.405       .  A
C1760      F1763   1.358       .  S
C1761      C1764   1.406       .  A
C1761      C1768   1.405       .  A
F1762      C2395   1.358       .  S
C1764      C1765   1.400       .  A
C1764      F1769   1.358       .  S
C1765      C1766   1.405       .  A
C1765      F1771   1.356       .  S
C1766      C1767   1.404       .  A
C1767      C1768   1.397       .  A
C1767      F1770   1.357       .  S
C1768      F1772   1.358       .  S
F1773      C2393   1.358       .  S
C1775      C1776   1.407       .  A
C1775      C1780   1.408       .  A
C1775      F1793   1.358       .  S
C1776      C1781   1.485       .  S
C1776      C1777   1.401       .  A
C1777      C1778   1.399       .  A
C1777      F1782   1.358       .  S
C1778      C1779   1.413       .  A
C1778      F1794   1.358       .  S
C1779      C1780   1.409       .  A
C1780      F1783   1.357       .  S
C1781      C1784   1.402       .  A
C1781      C1788   1.405       .  A
C1784      C1785   1.402       .  A
C1784      F1789   1.358       .  S
C1785      C1786   1.414       .  A
C1785      F1791   1.358       .  S
C1786      C1787   1.408       .  A
C1787      C1788   1.402       .  A
C1787      F1790   1.354       .  S
C1788      F1792   1.358       .  S
C1795      C1800   1.399       .  A
C1796      C1801   1.490       .  S
C1797      C1798   1.400       .  A
C1797      F1802   1.358       .  S
C1798      C1799   1.405       .  A
C1798      F1814   1.358       .  S
C1799      C1800   1.406       .  A
C1800      F1803   1.358       .  S
C1801      C1804   1.408       .  A
C1801      C1808   1.407       .  A
C1804      C1805   1.404       .  A
C1804      F1809   1.358       .  S
C1805      C1806   1.407       .  A
C1805      F1811   1.358       .  S
C1806      C1807   1.402       .  A
C1807      C1808   1.399       .  A
C1807      F1810   1.355       .  S
C1808      F1812   1.358       .  S
C1815      C1816   1.409       .  A
C1815      C1820   1.403       .  A
C1815      F1833   1.358       .  S
C1816      C1821   1.491   1_545  S
C1816      C1817   1.407       .  A
C1817      C1818   1.400       .  A
C1817      F1822   1.358       .  S
C1818      C1819   1.407       .  A
C1818      F1834   1.356       .  S
C1819      C1820   1.403       .  A
C1820      F1823   1.357       .  S
C1821      C2462   1.408       .  A
C1821      C2466   1.406       .  A
C1824      C2459   1.408       .  A
C1824      C1825   1.404       .  A
C1824      F1829   1.358       .  S
C1825      C1826   1.409       .  A
C1825      F1831   1.358       .  S
C1826      C1827   1.411       .  A
C1827      C1828   1.399       .  A
C1827      F1830   1.358       .  S
C1828      C2459   1.406       .  A
C1828      F2470   1.358       .  S
F1832      C2466   1.358   1_545  S
C1835      C1836   1.406       .  A
C1835      C1840   1.400       .  A
C1835      F1853   1.358       .  S
C1836      C1841   1.488       .  S
C1836      C1837   1.407       .  A
C1837      C1838   1.400       .  A
C1837      F1842   1.358       .  S
C1838      C1839   1.405       .  A
C1838      F1854   1.353       .  S
C1839      C1840   1.411       .  A
C1840      F1843   1.358       .  S
C1841      C1844   1.406       .  A
C1841      C1848   1.404       .  A
C1844      C1845   1.400       .  A
C1844      F1849   1.358       .  S
C1845      C1846   1.411       .  A
C1845      F1851   1.357       .  S
C1846      C1847   1.416       .  A
C1847      C1848   1.402       .  A
C1847      F1850   1.358       .  S
C1848      F1852   1.358       .  S
C1855      C1856   1.400       .  A
C1855      C1860   1.392       .  A
C1855      F1873   1.358       .  S
C1856      C1861   1.471       .  S
C1856      C1857   1.405       .  A
C1857      C1858   1.399       .  A
C1857      F1862   1.358       .  S
C1858      C1859   1.407       .  A
C1859      C1860   1.411       .  A
C1860      F1863   1.359       .  S
C1861      C1864   1.402       .  A
C1861      C1868   1.404       .  A
C1864      C1865   1.397       .  A
C1864      F1869   1.358       .  S
C1865      C1866   1.409       .  A
C1865      F1871   1.358       .  S
C1866      C1867   1.405       .  A
C1867      C1868   1.396       .  A
C1867      F1870   1.358       .  S
C1868      F1872   1.358       .  S
C1875      C1876   1.399       .  A
C1875      C1880   1.393       .  A
C1875      F1893   1.358       .  S
C1876      C1881   1.475       .  S
C1876      C1877   1.407       .  A
C1877      C1878   1.402       .  A
C1877      F1882   1.358       .  S
C1878      C1879   1.406       .  A
C1878      F1894   1.357       .  S
C1879      C1880   1.412       .  A
C1880      F1883   1.359       .  S
C1881      C1884   1.399       .  A
C1881      C1888   1.407       .  A
C1884      C1885   1.394       .  A
C1884      F1889   1.358       .  S
C1885      C1886   1.410       .  A
C1885      F2529   1.358       .  S
C1886      C1887   1.406       .  A
C1887      C1888   1.401       .  A
C1887      F1890   1.358       .  S
C1888      F1892   1.358       .  S
F1891      C2523   1.358   1_545  S
C1895      C1896   1.402       .  A
C1895      C1900   1.395       .  A
C1895      F1913   1.358       .  S
C1896      C1901   1.481       .  S
C1896      C1897   1.407       .  A
C1897      C1898   1.402       .  A
C1897      F1902   1.358       .  S
C1898      C1899   1.408       .  A
C1898      F1914   1.358       .  S
C1899      C1900   1.412       .  A
C1900      F1903   1.358       .  S
C1901      C1904   1.407       .  A
C1901      C1908   1.403       .  A
C1904      C1905   1.400       .  A
C1904      F1909   1.358       .  S
C1905      C1906   1.407       .  A
C1905      F1911   1.358       .  S
C1906      C1907   1.412       .  A
C1907      C1908   1.398       .  A
C1907      F1910   1.358       .  S
C1908      F1912   1.358       .  S
Zn1915     O1919   1.965       .  S
Zn1915     O1920   2.045       .  S
Zn1915     O1924   2.021       .  S
Zn1915     O1931   2.034       .  S
Zn1916     O1919   1.939       .  S
Zn1916     O1921   1.970       .  S
Zn1916     O1923   1.970       .  S
Zn1916     O1927   1.986       .  S
Zn1917     O1919   1.972       .  S
Zn1917     O1922   2.040       .  S
Zn1917     O1925   2.049       .  S
Zn1917     O1928   2.041       .  S
Zn1918     O1919   1.957       .  S
Zn1918     O1926   2.022       .  S
Zn1918     O1929   2.029       .  S
Zn1918     O1930   2.028       .  S
O1920      C1932   1.275       .  A
O1921      C1933   1.267       .  A
O1922      C1934   1.278       .  A
O1923      C1932   1.267       .  A
O1924      C1934   1.276       .  A
O1925      C1933   1.275       .  A
O1926      C1935   1.275       .  A
O1927      C1936   1.269       .  A
O1928      C1935   1.278       .  A
O1929      C1936   1.274       .  A
O1930      C1937   1.276       .  A
O1931      C1937   1.276       .  A
C1932      C2537   1.477       .  S
C1933      C2517   1.478       .  S
C1934      C2464   1.491       .  S
C1935      C2484   1.496       .  S
C1936      C2504   1.479       .  S
C1937      C2437   1.487       .  S
C1938      H1939   1.107       .  S
C1938      C1944   1.541       .  S
C1938      C1943   1.548       .  S
C1938      C1942   1.534       .  S
C1940      H1941   1.107       .  S
C1940      C1946   1.535       .  S
C1940      C1945   1.547       .  S
C1940      C1947   1.547       .  S
C1942      C1945   1.372       .  D
C1942      C2457   1.491       .  S
C1943      C1946   1.372       .  D
C1943      C2444   1.485       .  S
C1944      C1947   1.383       .  D
C1944      C2477   1.499       .  S
C1945      C2404   1.485       .  S
C1946      C2384   1.493       .  S
C1947      C2424   1.500       .  S
Zn1948     O1952   1.952       .  S
Zn1948     O1953   2.003       .  S
Zn1948     O1957   2.030       .  S
Zn1948     O1964   2.007       .  S
Zn1949     O1952   1.982       .  S
Zn1949     O1954   2.060       .  S
Zn1949     O1956   2.073       .  S
Zn1949     O1960   2.082       .  S
Zn1950     O1952   1.941       .  S
Zn1950     O1955   2.000       .  S
Zn1950     O1958   1.970       .  S
Zn1950     O1961   1.986       .  S
Zn1951     O1952   1.947       .  S
Zn1951     O1959   2.005       .  S
Zn1951     O1962   1.986       .  S
Zn1951     O1963   1.990       .  S
O1953      C1965   1.274       .  A
O1954      C1966   1.279       .  A
O1955      C1967   1.270       .  A
O1956      C1965   1.282       .  A
O1957      C1967   1.273       .  A
O1958      C1966   1.269       .  A
O1959      C1968   1.270       .  A
O1960      C1969   1.281       .  A
O1961      C1968   1.269       .  A
O1962      C1969   1.271       .  A
O1963      C1970   1.270       .  A
O1964      C1970   1.272       .  A
C1965      C2377   1.500       .  S
C1966      C2397   1.486       .  S
C1967      C2357   1.487       .  S
C1968      C2344   1.479       .  S
C1969      C2417   1.489       .  S
C1970      C2324   1.478       .  S
Zn1971     O1975   1.963       .  S
Zn1971     O1976   2.030       .  S
Zn1971     O1980   2.031       .  S
Zn1971     O1987   2.032       .  S
Zn1972     O1975   1.966       .  S
Zn1972     O1977   2.044       .  S
Zn1972     O1979   2.026       .  S
Zn1972     O1983   2.033       .  S
Zn1973     O1975   1.935       .  S
Zn1973     O1978   1.971       .  S
Zn1973     O1981   1.974       .  S
Zn1973     O1984   1.995       .  S
Zn1974     O1975   1.951       .  S
Zn1974     O1982   2.021       .  S
Zn1974     O1985   1.999       .  S
Zn1974     O1986   2.017       .  S
O1976      C1988   1.276       .  A
O1977      C1989   1.275       .  A
O1978      C1990   1.268       .  A
O1979      C1988   1.276       .  A
O1980      C1990   1.275       .  A
O1981      C1989   1.268       .  A
O1982      C1991   1.272       .  A
O1983      C1992   1.277       .  A
O1984      C1991   1.270       .  A
O1985      C1992   1.273       .  A
O1986      C1993   1.274       .  A
O1987      C1993   1.276       .  A
C1988      C2224   1.492       .  S
C1989      C2297   1.479       .  S
C1990      C2277   1.482       .  S
C1991      C2264   1.486       .  S
C1992      C2197   1.489       .  S
C1993      C2237   1.479       .  S
C1994      H1995   1.110       .  S
C1994      C2000   1.547       .  S
C1994      C1999   1.539       .  S
C1994      C1998   1.548       .  S
C1996      H1997   1.110       .  S
C1996      C2002   1.540       .  S
C1996      C2001   1.525       .  S
C1996      C2003   1.538       .  S
C1998      C2001   1.372       .  D
C1998      C2144   1.483       .  S
C1999      C2002   1.375       .  D
C1999      C2177   1.493       .  S
C2000      C2003   1.385       .  D
C2000      C2164   1.506       .  S
C2001      C2217   1.483       .  S
C2002      C2244   1.485       .  S
C2003      C2204   1.493       .  S
Zn2004     O2008   1.956       .  S
Zn2004     O2009   2.030       .  S
Zn2004     O2013   2.019       .  S
Zn2004     O2020   2.018       .  S
Zn2005     O2008   1.940       .  S
Zn2005     O2010   1.975       .  S
Zn2005     O2012   1.988       .  S
Zn2005     O2016   1.969       .  S
Zn2006     O2008   1.964       .  S
Zn2006     O2011   2.029       .  S
Zn2006     O2014   2.022       .  S
Zn2006     O2017   2.029       .  S
Zn2007     O2008   1.959       .  S
Zn2007     O2015   2.018       .  S
Zn2007     O2018   2.025       .  S
Zn2007     O2019   2.017       .  S
O2009      C2021   1.274       .  A
O2010      C2022   1.268       .  A
O2011      C2023   1.277       .  A
O2012      C2021   1.269       .  A
O2013      C2023   1.275       .  A
O2014      C2022   1.273       .  A
O2015      C2024   1.275       .  A
O2016      C2025   1.267       .  A
O2017      C2024   1.275       .  A
O2018      C2025   1.273       .  A
O2019      C2026   1.275       .  A
O2020      C2026   1.275       .  A
C2021      C2117   1.484       .  S
C2022      C2084   1.480       .  S
C2023      C2157   1.492       .  S
C2024      C2184   1.492       .  S
C2025      C2104   1.473       .  S
C2026      C2137   1.483       .  S
Zn2027     O2036   2.007   1_556  S
Zn2027     O2043   2.025       .  S
Zn2028     O2031   1.956       .  S
Zn2028     O2033   1.994   1_556  S
Zn2028     O2039   2.024       .  S
Zn2029     O2040   2.041       .  S
Zn2030     O2031   1.912       .  S
Zn2030     O2041   1.965       .  S
O2032      C2044   1.273       .  A
O2033      C2045   1.271       .  A
O2034      C2046   1.272       .  A
O2035      C2044   1.272       .  A
O2036      C2046   1.273       .  A
O2037      C2045   1.273       .  A
O2038      C2047   1.269       .  A
O2039      C2048   1.274       .  A
O2040      C2047   1.275       .  A
O2041      C2048   1.267       .  A
O2042      C2049   1.267       .  A
O2043      C2049   1.274       .  A
C2044      C2124   1.476       .  S
C2045      C2077   1.481       .  S
C2046      C2097   1.481       .  S
C2047      C2364   1.488       .  S
C2048      C2317   1.478       .  S
C2049      C2337   1.475       .  S
Zn2050     O2054   1.919       .  S
Zn2050     O2055   1.972       .  S
Zn2051     O2054   1.957       .  S
Zn2051     O2058   2.034       .  S
Zn2052     O2057   2.046       .  S
Zn2052     O2060   2.017       .  S
Zn2053     O2064   2.010       .  S
Zn2053     O2065   2.039       .  S
O2055      C2067   1.268       .  A
O2056      C2068   1.272       .  A
O2057      C2069   1.276       .  A
O2058      C2067   1.274       .  A
O2059      C2069   1.269       .  A
O2060      C2068   1.274       .  A
O2061      C2070   1.272       .  A
O2062      C2071   1.274       .  A
O2063      C2070   1.276       .  A
O2064      C2071   1.274       .  A
O2065      C2072   1.275       .  A
O2066      C2072   1.267       .  A
C2067      C2544   1.484       .  S
C2068      C2284   1.486       .  S
C2069      C2524   1.479       .  S
C2070      C2304   1.491       .  S
C2071      C2257   1.489       .  S
C2072      C2497   1.476       .  S
C2073      C2074   1.400       .  A
C2073      C2078   1.392       .  A
C2073      F2091   1.358       .  S
C2074      C2079   1.470       .  S
C2074      C2075   1.402       .  A
C2075      C2076   1.397       .  A
C2075      F2080   1.358       .  S
C2076      C2077   1.414       .  A
C2076      F2092   1.358       .  S
C2077      C2078   1.411       .  A
C2078      F2081   1.358       .  S
C2079      C2082   1.400       .  A
C2079      C2086   1.403       .  A
C2082      C2083   1.393       .  A
C2082      F2087   1.359       .  S
C2083      C2084   1.413       .  A
C2083      F2089   1.358       .  S
C2084      C2085   1.409       .  A
C2085      C2086   1.396       .  A
C2085      F2088   1.357       .  S
C2086      F2090   1.358       .  S
C2093      C2094   1.402       .  A
C2093      C2098   1.397       .  A
C2093      F2111   1.358       .  S
C2094      C2099   1.469       .  S
C2094      C2095   1.400       .  A
C2095      C2096   1.394       .  A
C2095      F2100   1.358       .  S
C2096      C2097   1.411       .  A
C2096      F2112   1.358       .  S
C2097      C2098   1.412       .  A
C2098      F2101   1.358       .  S
C2099      C2102   1.400       .  A
C2099      C2106   1.404       .  A
C2102      C2103   1.392       .  A
C2102      F2107   1.358       .  S
C2103      C2104   1.409       .  A
C2103      F2109   1.358       .  S
C2104      C2105   1.407       .  A
C2105      C2106   1.399       .  A
C2105      F2108   1.358       .  S
C2106      F2110   1.358       .  S
C2113      C2114   1.402       .  A
C2113      C2118   1.399       .  A
C2113      F2131   1.358       .  S
C2114      C2119   1.469       .  S
C2114      C2115   1.398       .  A
C2115      C2116   1.395       .  A
C2115      F2120   1.358       .  S
C2116      C2117   1.413       .  A
C2116      F2132   1.358       .  S
C2117      C2118   1.411       .  A
C2118      F2121   1.358       .  S
C2119      C2122   1.402       .  A
C2119      C2126   1.401       .  A
C2122      C2123   1.397       .  A
C2122      F2127   1.358       .  S
C2123      C2124   1.408       .  A
C2123      F2129   1.358       .  S
C2124      C2125   1.411       .  A
C2125      C2126   1.397       .  A
C2125      F2128   1.358   1_655  S
C2126      F2130   1.358       .  S
C2133      C2138   1.399       .  A
C2133      F2151   1.358       .  S
C2134      C2139   1.485       .  S
C2134      C2135   1.405       .  A
C2135      F2140   1.358       .  S
C2136      C2137   1.410       .  A
C2136      F2152   1.358       .  S
C2137      C2138   1.409       .  A
C2138      F2141   1.358       .  S
C2139      C2142   1.408       .  A
C2139      C2146   1.406       .  A
C2142      C2143   1.400       .  A
C2142      F2147   1.358       .  S
C2143      C2144   1.405       .  A
C2143      F2149   1.358       .  S
C2144      C2145   1.403       .  A
C2145      C2146   1.398       .  A
C2145      F2148   1.354       .  S
C2146      F2150   1.358       .  S
C2153      C2158   1.400       .  A
C2154      C2159   1.488       .  S
C2155      C2156   1.400       .  A
C2155      F2160   1.358       .  S
C2156      C2157   1.414       .  A
C2156      F2172   1.358       .  S
C2157      C2158   1.412       .  A
C2158      F2161   1.358       .  S
C2159      C2162   1.405       .  A
C2159      C2166   1.404       .  A
C2162      C2163   1.403       .  A
C2162      F2167   1.358       .  S
C2163      C2164   1.409       .  A
C2163      F2169   1.352       .  S
C2164      C2165   1.413       .  A
C2165      C2166   1.401       .  A
C2165      F2168   1.358       .  S
C2166      F2170   1.358       .  S
C2173      C2174   1.406       .  A
C2173      C2178   1.396       .  A
C2173      F2191   1.358       .  S
C2174      C2179   1.491       .  S
C2174      C2175   1.410       .  A
C2175      C2176   1.406       .  A
C2175      F2180   1.358       .  S
C2176      C2177   1.407       .  A
C2176      F2192   1.357       .  S
C2177      C2178   1.406       .  A
C2178      F2181   1.356       .  S
C2179      C2182   1.408       .  A
C2179      C2186   1.406       .  A
C2182      C2183   1.405       .  A
C2182      F2187   1.358       .  S
C2183      C2184   1.412       .  A
C2183      F2189   1.358       .  S
C2184      C2185   1.411       .  A
C2185      C2186   1.397       .  A
C2185      F2188   1.358       .  S
C2186      F2190   1.358       .  S
C2193      C2198   1.399       .  A
C2193      F2211   1.358       .  S
C2194      C2199   1.480       .  S
C2195      C2196   1.397       .  A
C2196      C2197   1.415       .  A
C2196      F2212   1.358       .  S
C2197      C2198   1.411       .  A
C2198      F2201   1.358       .  S
C2199      C2202   1.405       .  A
C2199      C2206   1.405       .  A
C2202      C2203   1.396       .  A
C2202      F2207   1.358       .  S
C2203      C2204   1.406       .  A
C2203      F2209   1.353       .  S
C2204      C2205   1.410       .  A
C2205      C2206   1.397       .  A
C2205      F2208   1.358       .  S
C2206      F2210   1.358       .  S
C2213      C2214   1.405       .  A
C2213      C2218   1.397       .  A
C2213      F2231   1.358       .  S
C2214      C2219   1.481       .  S
C2214      C2215   1.407       .  A
C2215      C2216   1.400       .  A
C2215      F2220   1.358       .  S
C2216      C2217   1.404       .  A
C2216      F2232   1.357       .  S
C2217      C2218   1.405       .  A
C2218      F2221   1.356       .  S
C2219      C2226   1.405       .  A
C2222      C2223   1.398       .  A
C2222      F2227   1.358       .  S
C2223      C2224   1.411       .  A
C2223      F2229   1.358       .  S
C2224      C2225   1.414       .  A
C2225      F2228   1.358       .  S
C2226      F2230   1.358       .  S
C2233      C2234   1.404       .  A
C2233      C2238   1.400       .  A
C2233      F2251   1.358       .  S
C2234      C2239   1.482       .  S
C2234      C2235   1.406       .  A
C2235      C2236   1.400       .  A
C2235      F2240   1.358       .  S
C2236      C2237   1.406       .  A
C2236      F2252   1.358       .  S
C2237      C2238   1.408       .  A
C2238      F2241   1.358       .  S
C2239      C2242   1.405       .  A
C2239      C2246   1.406       .  A
C2242      C2243   1.399       .  A
C2242      F2247   1.358       .  S
C2243      C2244   1.404       .  A
C2243      F2249   1.355       .  S
C2244      C2245   1.405       .  A
C2245      C2246   1.400       .  A
C2245      F2248   1.358       .  S
C2246      F2250   1.358       .  S
C2253      C2254   1.401       .  A
C2253      C2258   1.400       .  A
C2253      F2271   1.358       .  S
C2254      C2259   1.473       .  S
C2254      C2255   1.400       .  A
C2255      C2256   1.395       .  A
C2255      F2260   1.358       .  S
C2256      C2257   1.413       .  A
C2256      F2272   1.358       .  S
C2257      C2258   1.414       .  A
C2258      F2261   1.358       .  S
C2259      C2262   1.402       .  A
C2259      C2266   1.400       .  A
C2262      C2263   1.398       .  A
C2262      F2267   1.358       .  S
C2263      C2264   1.412       .  A
C2263      F2269   1.358       .  S
C2264      C2265   1.413       .  A
C2265      C2266   1.397       .  A
C2265      F2268   1.358       .  S
C2266      F2270   1.358       .  S
C2273      C2274   1.398       .  A
C2273      C2278   1.394       .  A
C2273      F2291   1.358       .  S
C2274      C2279   1.469       .  S
C2274      C2275   1.402       .  A
C2275      C2276   1.398       .  A
C2275      F2280   1.358       .  S
C2276      C2277   1.410       .  A
C2276      F2292   1.358       .  S
C2277      C2278   1.414       .  A
C2278      F2281   1.358       .  S
C2279      C2282   1.399       .  A
C2279      C2286   1.400       .  A
C2282      C2283   1.396       .  A
C2282      F2287   1.358       .  S
C2283      C2284   1.414       .  A
C2283      F2289   1.358       .  S
C2284      C2285   1.413       .  A
C2285      C2286   1.397       .  A
C2285      F2288   1.358       .  S
C2286      F2290   1.358       .  S
C2293      C2294   1.401       .  A
C2293      C2298   1.394       .  A
C2293      F2311   1.358       .  S
C2294      C2299   1.477       .  S
C2294      C2295   1.406       .  A
C2295      C2296   1.402       .  A
C2295      F2300   1.358       .  S
C2296      C2297   1.407       .  A
C2296      F2312   1.358       .  S
C2297      C2298   1.410       .  A
C2298      F2301   1.359       .  S
C2299      C2302   1.403       .  A
C2299      C2306   1.401       .  A
C2302      C2303   1.399       .  A
C2302      F2307   1.358       .  S
C2303      C2304   1.412       .  A
C2303      F2309   1.357       .  S
C2304      C2305   1.415       .  A
C2305      C2306   1.399       .  A
C2305      F2308   1.358   1_655  S
C2306      F2310   1.358       .  S
C2313      C2314   1.399       .  A
C2313      C2318   1.392       .  A
C2313      F2331   1.358       .  S
C2314      C2319   1.470       .  S
C2314      C2315   1.404       .  A
C2315      C2316   1.396       .  A
C2315      F2320   1.358       .  S
C2316      C2317   1.408       .  A
C2316      F2332   1.358       .  S
C2317      C2318   1.413       .  A
C2318      F2321   1.358       .  S
C2319      C2322   1.403       .  A
C2319      C2326   1.400       .  A
C2322      C2323   1.395       .  A
C2322      F2327   1.358       .  S
C2323      C2324   1.409       .  A
C2323      F2329   1.358       .  S
C2324      C2325   1.411       .  A
C2325      C2326   1.394       .  A
C2325      F2328   1.358       .  S
C2326      F2330   1.358       .  S
C2333      C2334   1.401       .  A
C2333      C2338   1.397       .  A
C2333      F2351   1.358       .  S
C2334      C2339   1.462       .  S
C2334      C2335   1.397       .  A
C2335      C2336   1.391       .  A
C2335      F2340   1.358       .  S
C2336      C2337   1.413       .  A
C2337      C2338   1.408       .  A
C2338      F2341   1.358       .  S
C2339      C2342   1.397       .  A
C2339      C2346   1.400       .  A
C2342      C2343   1.392       .  A
C2342      F2347   1.358       .  S
C2343      C2344   1.412       .  A
C2343      F2349   1.358       .  S
C2344      C2345   1.412       .  A
C2345      C2346   1.397       .  A
C2345      F2348   1.358       .  S
C2346      F2350   1.358       .  S
C2353      C2354   1.402       .  A
C2353      C2358   1.398       .  A
C2353      F2371   1.358       .  S
C2354      C2359   1.474       .  S
C2354      C2355   1.401       .  A
C2355      C2356   1.400       .  A
C2355      F2360   1.358       .  S
C2356      C2357   1.411       .  A
C2356      F2372   1.357       .  S
C2357      C2358   1.412       .  A
C2358      F2361   1.358       .  S
C2359      C2362   1.398       .  A
C2359      C2366   1.403       .  A
C2362      C2363   1.393       .  A
C2362      F2367   1.358       .  S
C2363      C2364   1.414       .  A
C2364      C2365   1.412       .  A
C2365      C2366   1.403       .  A
C2365      F2368   1.358       .  S
C2366      F2370   1.357       .  S
C2373      C2378   1.399       .  A
C2374      C2379   1.489       .  S
C2375      C2376   1.407       .  A
C2375      F2380   1.358       .  S
C2376      C2377   1.413       .  A
C2376      F2392   1.357       .  S
C2377      C2378   1.417       .  A
C2378      F2381   1.358       .  S
C2379      C2382   1.405       .  A
C2379      C2386   1.409       .  A
C2382      C2383   1.401       .  A
C2382      F2387   1.358       .  S
C2383      C2384   1.407       .  A
C2383      F2389   1.356       .  S
C2384      C2385   1.405       .  A
C2385      C2386   1.404       .  A
C2385      F2388   1.357       .  S
C2386      F2390   1.358       .  S
C2393      C2398   1.402       .  A
C2394      C2399   1.482       .  S
C2395      C2396   1.395   1_545  A
C2396      C2397   1.414       .  A
C2396      F2412   1.358       .  S
C2397      C2398   1.409       .  A
C2398      F2401   1.357       .  S
C2399      C2402   1.406       .  A
C2399      C2406   1.405       .  A
C2402      C2403   1.401       .  A
C2402      F2407   1.358       .  S
C2403      C2404   1.405       .  A
C2403      F2409   1.355       .  S
C2404      C2405   1.405       .  A
C2405      C2406   1.398       .  A
C2405      F2408   1.358       .  S
C2406      F2410   1.358       .  S
C2413      C2414   1.407       .  A
C2413      C2418   1.407       .  A
C2413      F2431   1.358       .  S
C2414      C2419   1.482       .  S
C2414      C2415   1.400       .  A
C2415      C2416   1.398       .  A
C2415      F2420   1.358       .  S
C2416      C2417   1.413       .  A
C2416      F2432   1.358       .  S
C2417      C2418   1.408       .  A
C2418      F2421   1.357       .  S
C2419      C2422   1.402       .  A
C2419      C2426   1.404       .  A
C2422      C2423   1.402       .  A
C2422      F2427   1.358       .  S
C2423      C2424   1.413       .  A
C2423      F2429   1.358       .  S
C2424      C2425   1.406       .  A
C2425      C2426   1.401       .  A
C2425      F2428   1.353       .  S
C2426      F2430   1.358       .  S
C2433      C2438   1.400       .  A
C2434      C2439   1.488       .  S
C2435      C2436   1.403       .  A
C2435      F2440   1.358       .  S
C2436      C2437   1.409       .  A
C2436      F2452   1.358       .  S
C2437      C2438   1.409       .  A
C2438      F2441   1.358       .  S
C2439      C2442   1.408       .  A
C2439      C2446   1.407       .  A
C2442      C2443   1.402       .  A
C2442      F2447   1.358       .  S
C2443      C2444   1.406       .  A
C2443      F2449   1.358       .  S
C2444      C2445   1.403       .  A
C2445      C2446   1.398       .  A
C2445      F2448   1.354       .  S
C2446      F2450   1.358       .  S
C2453      C2454   1.409       .  A
C2453      C2458   1.403       .  A
C2453      F2471   1.357       .  S
C2454      C2459   1.492       .  S
C2454      C2455   1.408       .  A
C2455      C2456   1.400       .  A
C2455      F2460   1.358       .  S
C2456      C2457   1.407       .  A
C2456      F2472   1.357       .  S
C2457      C2458   1.403       .  A
C2458      F2461   1.357       .  S
C2462      C2463   1.403       .  A
C2462      F2467   1.358       .  S
C2463      C2464   1.410       .  A
C2463      F2469   1.358       .  S
C2464      C2465   1.412       .  A
C2465      C2466   1.400       .  A
C2465      F2468   1.358       .  S
C2473      C2474   1.405       .  A
C2473      C2478   1.399       .  A
C2473      F2491   1.358       .  S
C2474      C2479   1.487       .  S
C2474      C2475   1.406       .  A
C2475      C2476   1.401       .  A
C2475      F2480   1.358       .  S
C2476      C2477   1.407       .  A
C2476      F2492   1.353       .  S
C2477      C2478   1.411       .  A
C2478      F2481   1.358       .  S
C2479      C2482   1.405       .  A
C2479      C2486   1.404       .  A
C2482      C2483   1.401       .  A
C2482      F2487   1.358       .  S
C2483      C2484   1.412       .  A
C2483      F2489   1.357       .  S
C2484      C2485   1.415       .  A
C2485      C2486   1.401       .  A
C2485      F2488   1.358       .  S
C2486      F2490   1.358       .  S
C2493      C2494   1.401       .  A
C2493      C2498   1.391       .  A
C2493      F2511   1.358       .  S
C2494      C2499   1.475       .  S
C2494      C2495   1.407       .  A
C2495      C2496   1.402       .  A
C2495      F2500   1.358       .  S
C2496      C2497   1.407       .  A
C2497      C2498   1.410       .  A
C2498      F2501   1.359       .  S
C2499      C2502   1.402       .  A
C2499      C2506   1.405       .  A
C2502      C2503   1.397       .  A
C2502      F2507   1.358       .  S
C2503      C2504   1.411       .  A
C2503      F2509   1.358       .  S
C2504      C2505   1.407       .  A
C2505      C2506   1.396       .  A
C2505      F2508   1.358       .  S
C2506      F2510   1.358       .  S
C2513      C2514   1.400       .  A
C2513      C2518   1.395       .  A
C2513      F2531   1.358       .  S
C2514      C2519   1.475       .  S
C2514      C2515   1.406       .  A
C2515      C2516   1.401       .  A
C2515      F2520   1.358       .  S
C2516      C2517   1.406       .  A
C2516      F2532   1.357       .  S
C2517      C2518   1.411       .  A
C2518      F2521   1.358       .  S
C2519      C2522   1.400       .  A
C2519      C2526   1.406       .  A
C2522      C2523   1.396       .  A
C2522      F2527   1.358       .  S
C2523      C2524   1.411       .  A
C2524      C2525   1.407       .  A
C2525      C2526   1.400       .  A
C2525      F2528   1.358       .  S
C2526      F2530   1.358       .  S
C2533      C2534   1.402       .  A
C2533      C2538   1.394       .  A
C2533      F2551   1.358       .  S
C2534      C2539   1.478       .  S
C2534      C2535   1.407       .  A
C2535      C2536   1.400       .  A
C2535      F2540   1.358       .  S
C2536      C2537   1.405       .  A
C2536      F2552   1.358       .  S
C2537      C2538   1.410       .  A
C2538      F2541   1.358       .  S
C2539      C2542   1.407       .  A
C2539      C2546   1.400       .  A
C2542      C2543   1.400       .  A
C2542      F2547   1.358       .  S
C2543      C2544   1.409       .  A
C2543      F2549   1.358       .  S
C2544      C2545   1.413       .  A
C2545      C2546   1.393       .  A
C2545      F2548   1.358       .  S
C2546      F2550   1.358       .  S
