geometry optimzed in LAMMPS
_audit_creation_date              2020-11-30 
_audit_creation_method            'lammps2cif' 
_symmetry_space_group_name_H-M    'P1' 
_symmetry_Int_Tables_number       1 
_symmetry_cell_setting            triclinic 
loop_ 
_symmetry_equiv_pos_as_xyz 
  x,y,z 
_cell_length_a                    31.957459072975606 
_cell_length_b                    31.864975001917156 
_cell_length_c                    31.561468540791207 
_cell_angle_alpha                 90.1120204807629 
_cell_angle_beta                  89.72037420284396 
_cell_angle_gamma                 91.3307936056346 
loop_ 
_atom_site_label 
_atom_site_type_symbol 
_atom_site_fract_x 
_atom_site_fract_y 
_atom_site_fract_z 
_atom_site_charge 
C1          C  0.36994379  0.50828897  0.40456603     0.42590
N2          N  0.40907696  0.48768017  0.45559037     0.01480
C3          C  0.04220607  0.10929735  0.07983418    -0.06400
H4          H  0.07705553  0.11175435  0.41589843     0.06970
C5          C  0.10314886  0.45763464  0.42340983    -0.06750
Co6        Co  0.44921499  0.05992918  0.50150121     0.74180
N7          N  0.02765613  0.08586462  0.45562211    -0.25930
Co8        Co  0.05744729  0.05125189  0.50193654     0.74070
C9          C  0.12240871  0.49400180  0.40216186     0.42690
N10         N  0.00927656  0.41324854  0.45588973     0.01090
N11         N  0.08631703  0.01483396  0.45554826     0.01200
N12         N  0.47175909  0.11418177  0.07838370    -0.46780
H13         H  0.38722383  0.07787082  0.41922365     0.06960
N14         N  0.48650415  0.08868100  0.45483330     0.01480
N15         N  0.08609406  0.01525336  0.04842381     0.01220
C16         C  0.12473436  0.99481723  0.09966263     0.42830
N17         N  0.46815574  0.41628647  0.45583031    -0.25390
C18         C  0.39115466  0.04488055  0.08040710    -0.06310
N19         N  0.38326647  0.47410190  0.42559383    -0.46490
N20         N  0.11151133  0.02904239  0.07876891    -0.46710
C21         C  0.37241128  0.00800052  0.10125574     0.42600
N22         N  0.48558083  0.08975894  0.04759206     0.01470
N23         N  0.46782462  0.41668599  0.04804984    -0.25410
N24         N  0.41355521  0.02887272  0.45579738    -0.25900
N25         N  0.00888432  0.41361834  0.04841084     0.01110
H26         H  0.41852751  0.38898847  0.08550562     0.07000
H27         H  0.10801903  0.42524234  0.08626094     0.07040
N28         N  0.02664667  0.08633671  0.04777661    -0.25950
N29         N  0.08154072  0.47362020  0.45583677    -0.25560
N30         N  0.40919333  0.48802976  0.04815032     0.01480
C31         C  0.50804810  0.12479081  0.40156654     0.42870
C32         C  0.45256805  0.39319805  0.42369707    -0.06810
N33         N  0.08175433  0.47397575  0.04809064    -0.25560
H34         H  0.10542880  0.42458954  0.41619731     0.07020
N35         N  0.47339561  0.11164202  0.42279560    -0.46780
H36         H  0.41981906  0.38971721  0.41566881     0.07010
C37         C  0.98776013  0.37493490  0.10049021     0.42710
C38         C  0.39022555  0.04477210  0.42486734    -0.06310
Co39       Co  0.43781990  0.45156786  0.00185137     0.73820
N40         N  0.02316158  0.38921076  0.42487706    -0.46500
C41         C  0.00571728  0.12773904  0.10014483     0.42970
N42         N  0.38526596  0.47399411  0.07962914    -0.46490
Co43       Co  0.04587310  0.44294571  0.00212254     0.73890
C44         C  0.10496620  0.45823291  0.07927510    -0.06820
C45         C  0.04410588  0.10813053  0.42335187    -0.06380
N46         N  0.41328702  0.02933422  0.04793423    -0.25910
N47         N  0.11052362  0.02837291  0.42394019    -0.46670
H48         H  0.07501099  0.11334861  0.08709695     0.06980
C49         C  0.45158897  0.39329593  0.07960837    -0.06790
Cl50       Cl  0.99757935  0.00142084  0.00190461    -0.49790
C51         C  0.48922504  0.37512938  0.40340155     0.42740
H52         H  0.38893744  0.07774989  0.08842368     0.06950
N53         N  0.02203292  0.38897008  0.07904391    -0.46510
C54         C  0.50481330  0.27327431  0.25171113     0.00690
C55         C  0.50806438  0.23050913  0.25236029     0.00690
C56         C  0.26955986  0.48989396  0.25265871     0.00690
C57         C  0.22688158  0.48765363  0.25086298     0.00690
C58         C  0.20408971  0.48958636  0.20982559    -0.00030
C59         C  0.18369435  0.02672422  0.19999596    -0.11900
C60         C  0.16039302  0.03025641  0.16281311     0.02210
C61         C  0.15403450  0.49488780  0.13626927    -0.00110
C62         C  0.17580365  0.45812441  0.14544444    -0.11840
C63         C  0.20181532  0.45576562  0.18099877     0.02100
H64         H  0.18699052  0.05354375  0.22105636     0.15080
H65         H  0.17313737  0.43126412  0.12444349     0.15080
C66         C  0.22575578  0.41844527  0.18696580     0.36730
C67         C  0.14537709  0.07113699  0.15227565     0.36630
N68         N  0.24498903  0.38843942  0.19126271    -0.43610
N69         N  0.13533293  0.10471670  0.14391473    -0.43610
C70         C  0.20054726  0.48903914  0.29007866    -0.00030
C71         C  0.19997176  0.02589311  0.31451855    -0.11900
C72         C  0.17488922  0.02851583  0.35102820     0.02210
C73         C  0.14929439  0.49378050  0.36348367    -0.00110
C74         C  0.14956899  0.45725568  0.33846302    -0.11840
C75         C  0.17471693  0.45467361  0.30222752     0.02100
H76         H  0.21917263  0.05275904  0.30493433     0.15080
H77         H  0.12999154  0.43035157  0.34698660     0.15080
C78         C  0.17455678  0.41561854  0.27915273     0.36730
C79         C  0.17686092  0.06694414  0.37528442     0.36630
N80         N  0.17473722  0.38375511  0.26155693    -0.43610
N81         N  0.17856263  0.09779632  0.39467502    -0.43610
C82         C  0.29596002  0.49452218  0.21359912    -0.00030
C83         C  0.29182921  0.03009416  0.18775867    -0.11900
C84         C  0.31645270  0.03567282  0.15115091     0.02210
C85         C  0.34643018  0.50555596  0.14023119    -0.00110
C86         C  0.35128940  0.47083268  0.16671680    -0.11840
C87         C  0.32666616  0.46507227  0.20304666     0.02100
H88         H  0.26930731  0.05362621  0.19624621     0.15080
H89         H  0.37490982  0.44820138  0.15909213     0.15080
C90         C  0.33345701  0.42811866  0.22816791     0.36730
C91         C  0.30911166  0.07164571  0.12476511     0.36510
N92         N  0.33987215  0.39802966  0.24731289    -0.43610
N93         N  0.30306664  0.10052338  0.10366711    -0.43610
C94         C  0.29170905  0.49460905  0.29388246    -0.00030
C95         C  0.30902881  0.03406919  0.30395355    -0.11900
C96         C  0.33204179  0.04053672  0.34110185     0.02210
C97         C  0.34069890  0.50604622  0.36782232    -0.00110
C98         C  0.32153300  0.46690542  0.35841904    -0.11840
C99         C  0.29638586  0.46123738  0.32255690     0.02100
H100        H  0.30395201  0.06023833  0.28277366     0.15080
H101        H  0.32625966  0.44032171  0.37910812     0.15080
C102        C  0.27685559  0.42057100  0.31564892     0.36730
C103        C  0.34493558  0.08318105  0.35039802     0.36630
N104        N  0.26177949  0.38756544  0.31076173    -0.43610
N105        N  0.35423872  0.11793505  0.35682607    -0.43610
C106        C  0.50801831  0.20539021  0.21227187    -0.00030
C107        C  0.47330251  0.20623010  0.18513242    -0.11900
C108        C  0.47168621  0.18148605  0.14835087     0.02210
C109        C  0.50511463  0.15476973  0.13849175    -0.00110
C110        C  0.03915282  0.15341420  0.16623472    -0.11840
C111        C  0.04094081  0.17818754  0.20271321     0.02100
H112        H  0.44715803  0.22592074  0.19298804     0.15080
H113        H  0.06424085  0.13224150  0.15992646     0.15080
C114        C  0.07724342  0.17522923  0.22952465     0.36730
C115        C  0.43560459  0.18461593  0.12130977     0.36630
N116        N  0.10654019  0.17262739  0.25068031    -0.43610
N117        N  0.40662751  0.18714561  0.09969049    -0.43610
C118        C  0.50806524  0.20557559  0.29251947    -0.00030
C119        C  0.47904707  0.17189662  0.29599444    -0.11900
C120        C  0.47972302  0.14444103  0.33041116     0.02210
C121        C  0.50811103  0.15181557  0.36367143    -0.00110
C122        C  0.03763895  0.18488768  0.36020755    -0.11840
C123        C  0.53849068  0.21116416  0.32460531     0.02100
H124        H  0.45682693  0.16589651  0.27070374     0.15080
H125        H  0.06063598  0.18970095  0.38501223     0.15080
C126        C  0.07291218  0.24096674  0.32044377     0.36730
C127        C  0.45492544  0.10609059  0.32824100     0.36630
N128        N  0.10114596  0.26418999  0.31749765    -0.43610
N129        N  0.43644246  0.07454530  0.32575617    -0.43610
C130        C  0.50038363  0.29652199  0.21103898    -0.00030
C131        C  0.46233940  0.31595450  0.20338757    -0.11900
C132        C  0.45630281  0.33983084  0.16687425     0.02210
C133        C  0.48971213  0.34634353  0.13774354    -0.00110
C134        C  0.02754168  0.32580031  0.14510076    -0.11840
C135        C  0.03287921  0.30053737  0.18083236     0.02100
H136        H  0.43692405  0.31200240  0.22607284     0.15080
H137        H  0.05335926  0.32957794  0.12290791     0.15080
C138        C  0.07259243  0.28066895  0.18644901     0.36730
C139        C  0.41515597  0.35616706  0.16079645     0.36630
N140        N  0.10468978  0.26515893  0.19062113    -0.43610
N141        N  0.38135854  0.36767646  0.15667330    -0.43610
C142        C  0.49144968  0.34883921  0.36481348    -0.00030
C143        C  0.02461016  0.35664061  0.33655082    -0.11900
C144        C  0.02899474  0.33281019  0.29969232     0.02210
C145        C  0.50089161  0.29896210  0.29122585    -0.00110
C146        C  0.46742224  0.29123393  0.31941833    -0.11840
C147        C  0.46235233  0.31598766  0.35587507     0.02100
H148        H  0.04691867  0.38204352  0.34293616     0.15080
H149        H  0.44500812  0.26605911  0.31270156     0.15080
C150        C  0.42791753  0.30609751  0.38412677     0.36730
C151        C  0.06301096  0.34376133  0.27139943     0.36630
N152        N  0.40023873  0.29815121  0.40672210    -0.43610
N153        N  0.09018800  0.35312162  0.24876932    -0.43610
C154        C  0.36994379  0.50828897  0.90456603     0.42590
N155        N  0.40907696  0.48768017  0.95559037     0.01480
C156        C  0.04220607  0.10929734  0.57983418    -0.06400
H157        H  0.07705553  0.11175435  0.91589843     0.06970
C158        C  0.10314886  0.45763464  0.92340983    -0.06750
Co159      Co  0.44921499  0.05992918  0.00150121     0.74180
N160        N  0.02765613  0.08586462  0.95562211    -0.25930
Co161      Co  0.05744729  0.05125189  0.00193654     0.74070
C162        C  0.12240871  0.49400180  0.90216186     0.42690
N163        N  0.00927656  0.41324854  0.95588973     0.01090
N164        N  0.08631703  0.01483396  0.95554826     0.01200
N165        N  0.47175908  0.11418177  0.57838370    -0.46780
H166        H  0.38722384  0.07787082  0.91922365     0.06960
N167        N  0.48650415  0.08868100  0.95483330     0.01480
N168        N  0.08609406  0.01525336  0.54842381     0.01220
C169        C  0.12473436  0.99481723  0.59966263     0.42830
N170        N  0.46815574  0.41628647  0.95583031    -0.25390
C171        C  0.39115465  0.04488055  0.58040710    -0.06310
N172        N  0.38326647  0.47410190  0.92559383    -0.46490
N173        N  0.11151133  0.02904239  0.57876891    -0.46710
C174        C  0.37241128  0.00800052  0.60125574     0.42600
N175        N  0.48558083  0.08975893  0.54759206     0.01470
N176        N  0.46782462  0.41668599  0.54804984    -0.25410
N177        N  0.41355521  0.02887272  0.95579738    -0.25900
N178        N  0.00888432  0.41361834  0.54841084     0.01110
H179        H  0.41852751  0.38898847  0.58550562     0.07000
H180        H  0.10801903  0.42524234  0.58626094     0.07040
N181        N  0.02664667  0.08633671  0.54777661    -0.25950
N182        N  0.08154072  0.47362020  0.95583677    -0.25560
N183        N  0.40919333  0.48802976  0.54815032     0.01480
C184        C  0.50804810  0.12479081  0.90156654     0.42870
C185        C  0.45256805  0.39319805  0.92369707    -0.06810
N186        N  0.08175433  0.47397575  0.54809064    -0.25560
H187        H  0.10542880  0.42458954  0.91619731     0.07020
N188        N  0.47339561  0.11164202  0.92279560    -0.46780
H189        H  0.41981906  0.38971721  0.91566881     0.07010
C190        C  0.98776013  0.37493490  0.60049021     0.42710
C191        C  0.39022555  0.04477210  0.92486734    -0.06310
Co192      Co  0.43781990  0.45156786  0.50185137     0.73820
N193        N  0.02316158  0.38921076  0.92487706    -0.46500
C194        C  0.00571728  0.12773904  0.60014483     0.42970
N195        N  0.38526596  0.47399411  0.57962914    -0.46490
Co196      Co  0.04587310  0.44294571  0.50212254     0.73890
C197        C  0.10496620  0.45823291  0.57927510    -0.06820
C198        C  0.04410588  0.10813053  0.92335187    -0.06380
N199        N  0.41328702  0.02933422  0.54793423    -0.25910
N200        N  0.11052362  0.02837291  0.92394019    -0.46670
H201        H  0.07501098  0.11334861  0.58709695     0.06980
C202        C  0.45158897  0.39329593  0.57960837    -0.06790
Cl203      Cl  0.99757935  0.00142083  0.50190461    -0.49790
C204        C  0.48922504  0.37512938  0.90340155     0.42740
H205        H  0.38893744  0.07774989  0.58842368     0.06950
N206        N  0.02203292  0.38897008  0.57904391    -0.46510
C207        C  0.50481330  0.27327431  0.75171113     0.00690
C208        C  0.50806438  0.23050913  0.75236029     0.00690
C209        C  0.26955986  0.48989396  0.75265871     0.00690
C210        C  0.22688158  0.48765363  0.75086298     0.00690
C211        C  0.20408971  0.48958636  0.70982559    -0.00030
C212        C  0.18369435  0.02672422  0.69999596    -0.11900
C213        C  0.16039302  0.03025641  0.66281311     0.02210
C214        C  0.15403450  0.49488780  0.63626927    -0.00110
C215        C  0.17580365  0.45812441  0.64544444    -0.11840
C216        C  0.20181532  0.45576563  0.68099877     0.02100
H217        H  0.18699052  0.05354375  0.72105636     0.15080
H218        H  0.17313738  0.43126412  0.62444349     0.15080
C219        C  0.22575578  0.41844527  0.68696580     0.36730
C220        C  0.14537708  0.07113699  0.65227565     0.36630
N221        N  0.24498903  0.38843942  0.69126271    -0.43610
N222        N  0.13533293  0.10471670  0.64391473    -0.43610
C223        C  0.20054726  0.48903914  0.79007866    -0.00030
C224        C  0.19997176  0.02589311  0.81451855    -0.11900
C225        C  0.17488922  0.02851583  0.85102820     0.02210
C226        C  0.14929439  0.49378050  0.86348367    -0.00110
C227        C  0.14956899  0.45725568  0.83846302    -0.11840
C228        C  0.17471693  0.45467361  0.80222752     0.02100
H229        H  0.21917263  0.05275904  0.80493433     0.15080
H230        H  0.12999154  0.43035157  0.84698660     0.15080
C231        C  0.17455678  0.41561854  0.77915273     0.36730
C232        C  0.17686092  0.06694414  0.87528442     0.36630
N233        N  0.17473722  0.38375511  0.76155693    -0.43610
N234        N  0.17856263  0.09779632  0.89467503    -0.43610
C235        C  0.29596002  0.49452218  0.71359912    -0.00030
C236        C  0.29182920  0.03009416  0.68775867    -0.11900
C237        C  0.31645270  0.03567282  0.65115091     0.02210
C238        C  0.34643018  0.50555596  0.64023119    -0.00110
C239        C  0.35128940  0.47083268  0.66671681    -0.11840
C240        C  0.32666616  0.46507228  0.70304666     0.02100
H241        H  0.26930731  0.05362621  0.69624621     0.15080
H242        H  0.37490982  0.44820139  0.65909213     0.15080
C243        C  0.33345701  0.42811866  0.72816791     0.36730
C244        C  0.30911165  0.07164571  0.62476510     0.36510
N245        N  0.33987215  0.39802966  0.74731290    -0.43610
N246        N  0.30306663  0.10052337  0.60366711    -0.43610
C247        C  0.29170905  0.49460906  0.79388246    -0.00030
C248        C  0.30902882  0.03406920  0.80395355    -0.11900
C249        C  0.33204179  0.04053672  0.84110185     0.02210
C250        C  0.34069890  0.50604622  0.86782232    -0.00110
C251        C  0.32153300  0.46690542  0.85841904    -0.11840
C252        C  0.29638586  0.46123738  0.82255690     0.02100
H253        H  0.30395201  0.06023833  0.78277366     0.15080
H254        H  0.32625966  0.44032171  0.87910812     0.15080
C255        C  0.27685559  0.42057100  0.81564892     0.36730
C256        C  0.34493559  0.08318105  0.85039801     0.36630
N257        N  0.26177949  0.38756544  0.81076173    -0.43610
N258        N  0.35423873  0.11793505  0.85682607    -0.43610
C259        C  0.50801831  0.20539021  0.71227187    -0.00030
C260        C  0.47330251  0.20623010  0.68513242    -0.11900
C261        C  0.47168621  0.18148605  0.64835087     0.02210
C262        C  0.50511463  0.15476973  0.63849175    -0.00110
C263        C  0.03915282  0.15341421  0.66623472    -0.11840
C264        C  0.04094081  0.17818754  0.70271321     0.02100
H265        H  0.44715803  0.22592074  0.69298804     0.15080
H266        H  0.06424085  0.13224150  0.65992646     0.15080
C267        C  0.07724342  0.17522924  0.72952465     0.36730
C268        C  0.43560459  0.18461593  0.62130977     0.36630
N269        N  0.10654019  0.17262739  0.75068030    -0.43610
N270        N  0.40662751  0.18714560  0.59969050    -0.43610
C271        C  0.50806524  0.20557559  0.79251947    -0.00030
C272        C  0.47904707  0.17189662  0.79599444    -0.11900
C273        C  0.47972302  0.14444103  0.83041116     0.02210
C274        C  0.50811103  0.15181557  0.86367142    -0.00110
C275        C  0.03763894  0.18488768  0.86020755    -0.11840
C276        C  0.53849068  0.21116416  0.82460531     0.02100
H277        H  0.45682693  0.16589651  0.77070374     0.15080
H278        H  0.06063598  0.18970095  0.88501223     0.15080
C279        C  0.07291218  0.24096674  0.82044377     0.36730
C280        C  0.45492544  0.10609058  0.82824100     0.36630
N281        N  0.10114596  0.26418999  0.81749765    -0.43610
N282        N  0.43644247  0.07454530  0.82575617    -0.43610
C283        C  0.50038362  0.29652199  0.71103898    -0.00030
C284        C  0.46233940  0.31595450  0.70338757    -0.11900
C285        C  0.45630281  0.33983084  0.66687425     0.02210
C286        C  0.48971213  0.34634353  0.63774354    -0.00110
C287        C  0.02754168  0.32580031  0.64510076    -0.11840
C288        C  0.03287921  0.30053737  0.68083236     0.02100
H289        H  0.43692405  0.31200240  0.72607284     0.15080
H290        H  0.05335926  0.32957794  0.62290791     0.15080
C291        C  0.07259243  0.28066895  0.68644901     0.36730
C292        C  0.41515597  0.35616706  0.66079645     0.36630
N293        N  0.10468978  0.26515894  0.69062113    -0.43610
N294        N  0.38135854  0.36767646  0.65667330    -0.43610
C295        C  0.49144968  0.34883921  0.86481348    -0.00030
C296        C  0.02461016  0.35664061  0.83655082    -0.11900
C297        C  0.02899474  0.33281019  0.79969232     0.02210
C298        C  0.50089161  0.29896210  0.79122585    -0.00110
C299        C  0.46742224  0.29123393  0.81941834    -0.11840
C300        C  0.46235233  0.31598766  0.85587507     0.02100
H301        H  0.04691866  0.38204352  0.84293616     0.15080
H302        H  0.44500812  0.26605911  0.81270156     0.15080
C303        C  0.42791754  0.30609751  0.88412677     0.36730
C304        C  0.06301096  0.34376133  0.77139943     0.36630
N305        N  0.40023873  0.29815121  0.90672210    -0.43610
N306        N  0.09018800  0.35312162  0.74876932    -0.43610
C307        C  0.36992416  0.00828755  0.40456786     0.42590
N308        N  0.40905834  0.98767877  0.45559153     0.01480
C309        C  0.04222207  0.60930028  0.07983437    -0.06400
H310        H  0.07707328  0.61175677  0.41589773     0.06970
C311        C  0.10313005  0.95763350  0.42340892    -0.06750
Co312      Co  0.44923299  0.55993028  0.50150044     0.74180
N313        N  0.02767440  0.58586632  0.45562190    -0.25930
Co314      Co  0.05746526  0.55125341  0.50193695     0.74070
C315        C  0.12238943  0.99400074  0.40216062     0.42690
N316        N  0.00925855  0.91324748  0.45589031     0.01090
N317        N  0.08633557  0.51483517  0.45554899     0.01200
N318        N  0.47177508  0.61418323  0.07838215    -0.46780
H319        H  0.38724253  0.57787225  0.41922258     0.06960
N320        N  0.48652235  0.58868210  0.45483302     0.01480
N321        N  0.08611135  0.51525440  0.04842459     0.01220
C322        C  0.12475113  0.49481795  0.09966374     0.42830
N323        N  0.46813764  0.91628471  0.45583091    -0.25390
C324        C  0.39117208  0.54488194  0.08040586    -0.06310
N325        N  0.38324727  0.97410052  0.42559547    -0.46490
N326        N  0.11152833  0.52904324  0.07877004    -0.46710
C327        C  0.37242879  0.50800194  0.10125453     0.42600
N328        N  0.48559796  0.58976013  0.04759139     0.01470
N329        N  0.46780740  0.91668484  0.04805071    -0.25410
N330        N  0.41357377  0.52887407  0.45579633    -0.25900
N331        N  0.00886716  0.91361778  0.04841099     0.01110
H332        H  0.41851153  0.88898732  0.08550847     0.07000
H333        H  0.10800200  0.92524154  0.08626033     0.07040
N334        N  0.02666386  0.58633858  0.04777679    -0.25950
N335        N  0.08152232  0.97361902  0.45583615    -0.25560
N336        N  0.40917566  0.98802843  0.04815133     0.01480
C337        C  0.50806543  0.62479205  0.40156606     0.42870
C338        C  0.45255043  0.89319561  0.42369775    -0.06810
N339        N  0.08173701  0.97397477  0.04809008    -0.25560
H340        H  0.10540998  0.92458840  0.41619645     0.07020
N341        N  0.47341336  0.61164264  0.42279527    -0.46780
H342        H  0.41980153  0.88971382  0.41566939     0.07010
C343        C  0.98774484  0.87493477  0.10049128     0.42710
C344        C  0.39024454  0.54477352  0.42486602    -0.06310
Co345      Co  0.43780189  0.95156637  0.00185225     0.73820
N346        N  0.02314407  0.88920989  0.42487784    -0.46500
C347        C  0.00573228  0.62774178  0.10014390     0.42970
N348        N  0.38524832  0.97399276  0.07963016    -0.46490
Co349      Co  0.04585526  0.94294484  0.00212242     0.73890
C350        C  0.10494917  0.95823208  0.07927437    -0.06820
C351        C  0.04412372  0.60813251  0.42335142    -0.06380
N352        N  0.41330461  0.52933554  0.04793315    -0.25910
N353        N  0.11054268  0.52837403  0.42394124    -0.46670
H354        H  0.07502678  0.61335246  0.08709766     0.06980
C355        C  0.45157279  0.89329498  0.07961005    -0.06790
Cl356      Cl  0.99759747  0.50142208  0.00190439    -0.49790
C357        C  0.48920798  0.87512767  0.40340237     0.42740
H358        H  0.38895474  0.57775128  0.08842238     0.06950
N359        N  0.02201680  0.88897025  0.07904403    -0.46510
C360        C  0.50480766  0.77327542  0.25171165     0.00690
C361        C  0.50806581  0.73051089  0.25236043     0.00690
C362        C  0.26954159  0.98989216  0.25265946     0.00690
C363        C  0.22686335  0.98765239  0.25086277     0.00690
C364        C  0.20407227  0.98958556  0.20982492    -0.00030
C365        C  0.18370995  0.52672424  0.19999789    -0.11900
C366        C  0.16040810  0.53025633  0.16281545     0.02210
C367        C  0.15401786  0.99488725  0.13626806    -0.00110
C368        C  0.17578549  0.95812324  0.14544433    -0.11840
C369        C  0.20179681  0.95576428  0.18099886     0.02100
H370        H  0.18700510  0.55354335  0.22105899     0.15080
H371        H  0.17311832  0.93126247  0.12444410     0.15080
C372        C  0.22573605  0.91844326  0.18696662     0.36730
C373        C  0.14538981  0.57113632  0.15227968     0.36630
N374        N  0.24496834  0.88843683  0.19126392    -0.43610
N375        N  0.13534376  0.60471573  0.14392020    -0.43610
C376        C  0.20052843  0.98903803  0.29007789    -0.00030
C377        C  0.19999270  0.52589329  0.31452092    -0.11900
C378        C  0.17491052  0.52851586  0.35103086     0.02210
C379        C  0.14927497  0.99377956  0.36348237    -0.00110
C380        C  0.14955154  0.95725385  0.33846313    -0.11840
C381        C  0.17469985  0.95467163  0.30222795     0.02100
H382        H  0.21919485  0.55275866  0.30493768     0.15080
H383        H  0.12997552  0.93034902  0.34698768     0.15080
C384        C  0.17454197  0.91561552  0.27915501     0.36730
C385        C  0.17688458  0.56694296  0.37528889     0.36630
N386        N  0.17472406  0.88375107  0.26156116    -0.43610
N387        N  0.17858820  0.59779414  0.39468099    -0.43610
C388        C  0.29594232  0.99452062  0.21360032    -0.00030
C389        C  0.29184552  0.53009477  0.18775639    -0.11900
C390        C  0.31646906  0.53567343  0.15114866     0.02210
C391        C  0.34641249  0.00555436  0.14023233    -0.00110
C392        C  0.35127014  0.97082988  0.16671676    -0.11840
C393        C  0.32664697  0.96506957  0.20304668     0.02100
H394        H  0.26932268  0.55362618  0.19624316     0.15080
H395        H  0.37488916  0.94819743  0.15909105     0.15080
C396        C  0.33343634  0.92811482  0.22816666     0.36730
C397        C  0.30912702  0.57164540  0.12476188     0.36510
N398        N  0.33985049  0.89802480  0.24731039    -0.43610
N399        N  0.30308132  0.60052234  0.10366309    -0.43610
C400        C  0.29168993  0.99460727  0.29388376    -0.00030
C401        C  0.30905048  0.53407031  0.30395054    -0.11900
C402        C  0.33206430  0.54053778  0.34109825     0.02210
C403        C  0.34067884  0.00604465  0.36782437    -0.00110
C404        C  0.32151500  0.96690322  0.35841967    -0.11840
C405        C  0.29636810  0.96123509  0.32255734     0.02100
H406        H  0.30397520  0.56023898  0.28276963     0.15080
H407        H  0.32624304  0.94031908  0.37910781     0.15080
C408        C  0.27683915  0.92056824  0.31564868     0.36730
C409        C  0.34496222  0.58318152  0.35039172     0.36630
N410        N  0.26176422  0.88756220  0.31076126    -0.43610
N411        N  0.35426872  0.61793510  0.35681751    -0.43610
C412        C  0.50802337  0.70539268  0.21227159    -0.00030
C413        C  0.47330686  0.70622720  0.18513282    -0.11900
C414        C  0.47169399  0.68148357  0.14835089     0.02210
C415        C  0.50512703  0.65477331  0.13849034    -0.00110
C416        C  0.03916652  0.65342390  0.16623216    -0.11840
C417        C  0.04095068  0.67819631  0.20271147     0.02100
H418        H  0.44715910  0.72591317  0.19298941     0.15080
H419        H  0.06425860  0.63225657  0.15992255     0.15080
C420        C  0.07725430  0.67524364  0.22952233     0.36730
C421        C  0.43561058  0.68460738  0.12131128     0.36630
N422        N  0.10655190  0.67264646  0.25067755    -0.43610
N423        N  0.40663201  0.68713219  0.09969332    -0.43610
C424        C  0.50807124  0.70557677  0.29251922    -0.00030
C425        C  0.47905905  0.67189256  0.29599345    -0.11900
C426        C  0.47973983  0.64443660  0.33040961     0.02210
C427        C  0.50812646  0.65181564  0.36367016    -0.00110
C428        C  0.03764904  0.68489254  0.36020680    -0.11840
C429        C  0.53849609  0.71116983  0.32460503     0.02100
H430        H  0.45683979  0.66588900  0.27070271     0.15080
H431        H  0.06064512  0.68970938  0.38501176     0.15080
C432        C  0.07291240  0.74097854  0.32044399     0.36730
C433        C  0.45494850  0.60608213  0.32823913     0.36630
N434        N  0.10114206  0.76420692  0.31749815    -0.43610
N435        N  0.43647052  0.57453395  0.32575435    -0.43610
C436        C  0.50037523  0.79652262  0.21103952    -0.00030
C437        C  0.46232908  0.81595173  0.20338839    -0.11900
C438        C  0.45629040  0.83982829  0.16687552     0.02210
C439        C  0.48969896  0.84634359  0.13774452    -0.00110
C440        C  0.02753038  0.82580365  0.14510143    -0.11840
C441        C  0.03287059  0.80054159  0.18083305     0.02100
H442        H  0.43691420  0.81199738  0.22607383     0.15080
H443        H  0.05334771  0.82958374  0.12290865     0.15080
C444        C  0.07258675  0.78067905  0.18645036     0.36730
C445        C  0.41514272  0.85616292  0.16079888     0.36630
N446        N  0.10468665  0.76517427  0.19062288    -0.43610
N447        N  0.38134488  0.86767153  0.15667674    -0.43610
C448        C  0.49143427  0.84883887  0.36481360    -0.00030
C449        C  0.02459315  0.85664503  0.33655033    -0.11900
C450        C  0.02898060  0.83281528  0.29969189     0.02210
C451        C  0.50088263  0.79896260  0.29122638    -0.00110
C452        C  0.46741459  0.79122976  0.31941940    -0.11840
C453        C  0.46234124  0.81598343  0.35587576     0.02100
H454        H  0.04689809  0.88205122  0.34293517     0.15080
H455        H  0.44500404  0.76605162  0.31270317     0.15080
C456        C  0.42790751  0.80608976  0.38412760     0.36730
C457        C  0.06299395  0.84377262  0.27139776     0.36630
N458        N  0.40022949  0.79814086  0.40672304    -0.43610
N459        N  0.09016829  0.85313858  0.24876658    -0.43610
C460        C  0.36992416  0.00828756  0.90456786     0.42590
N461        N  0.40905834  0.98767877  0.95559153     0.01480
C462        C  0.04222207  0.60930028  0.57983437    -0.06400
H463        H  0.07707328  0.61175677  0.91589773     0.06970
C464        C  0.10313005  0.95763350  0.92340892    -0.06750
Co465      Co  0.44923299  0.55993028  0.00150044     0.74180
N466        N  0.02767440  0.58586631  0.95562190    -0.25930
Co467      Co  0.05746526  0.55125341  0.00193695     0.74070
C468        C  0.12238943  0.99400074  0.90216062     0.42690
N469        N  0.00925854  0.91324748  0.95589031     0.01090
N470        N  0.08633557  0.51483517  0.95554899     0.01200
N471        N  0.47177508  0.61418323  0.57838215    -0.46780
H472        H  0.38724253  0.57787225  0.91922258     0.06960
N473        N  0.48652235  0.58868210  0.95483302     0.01480
N474        N  0.08611135  0.51525440  0.54842459     0.01220
C475        C  0.12475113  0.49481795  0.59966374     0.42830
N476        N  0.46813764  0.91628471  0.95583091    -0.25390
C477        C  0.39117208  0.54488194  0.58040586    -0.06310
N478        N  0.38324727  0.97410052  0.92559547    -0.46490
N479        N  0.11152833  0.52904324  0.57877004    -0.46710
C480        C  0.37242879  0.50800194  0.60125453     0.42600
N481        N  0.48559796  0.58976013  0.54759139     0.01470
N482        N  0.46780740  0.91668484  0.54805071    -0.25410
N483        N  0.41357377  0.52887407  0.95579633    -0.25900
N484        N  0.00886717  0.91361778  0.54841099     0.01110
H485        H  0.41851153  0.88898732  0.58550847     0.07000
H486        H  0.10800200  0.92524154  0.58626033     0.07040
N487        N  0.02666386  0.58633858  0.54777679    -0.25950
N488        N  0.08152232  0.97361902  0.95583615    -0.25560
N489        N  0.40917566  0.98802843  0.54815133     0.01480
C490        C  0.50806543  0.62479205  0.90156607     0.42870
C491        C  0.45255043  0.89319561  0.92369775    -0.06810
N492        N  0.08173701  0.97397477  0.54809008    -0.25560
H493        H  0.10540998  0.92458840  0.91619645     0.07020
N494        N  0.47341336  0.61164264  0.92279527    -0.46780
H495        H  0.41980153  0.88971382  0.91566939     0.07010
C496        C  0.98774484  0.87493477  0.60049128     0.42710
C497        C  0.39024454  0.54477352  0.92486602    -0.06310
Co498      Co  0.43780189  0.95156637  0.50185225     0.73820
N499        N  0.02314407  0.88920989  0.92487784    -0.46500
C500        C  0.00573228  0.62774178  0.60014390     0.42970
N501        N  0.38524832  0.97399276  0.57963016    -0.46490
Co502      Co  0.04585526  0.94294484  0.50212242     0.73890
C503        C  0.10494917  0.95823208  0.57927437    -0.06820
C504        C  0.04412372  0.60813250  0.92335142    -0.06380
N505        N  0.41330461  0.52933554  0.54793315    -0.25910
N506        N  0.11054268  0.52837403  0.92394124    -0.46670
H507        H  0.07502678  0.61335246  0.58709766     0.06980
C508        C  0.45157279  0.89329498  0.57961005    -0.06790
Cl509      Cl  0.99759747  0.50142208  0.50190439    -0.49790
C510        C  0.48920798  0.87512767  0.90340237     0.42740
H511        H  0.38895474  0.57775128  0.58842238     0.06950
N512        N  0.02201680  0.88897025  0.57904403    -0.46510
C513        C  0.50480766  0.77327542  0.75171165     0.00690
C514        C  0.50806581  0.73051089  0.75236043     0.00690
C515        C  0.26954159  0.98989217  0.75265946     0.00690
C516        C  0.22686335  0.98765239  0.75086277     0.00690
C517        C  0.20407227  0.98958556  0.70982492    -0.00030
C518        C  0.18370995  0.52672424  0.69999789    -0.11900
C519        C  0.16040810  0.53025633  0.66281545     0.02210
C520        C  0.15401786  0.99488725  0.63626806    -0.00110
C521        C  0.17578550  0.95812324  0.64544433    -0.11840
C522        C  0.20179681  0.95576428  0.68099886     0.02100
H523        H  0.18700510  0.55354335  0.72105899     0.15080
H524        H  0.17311833  0.93126247  0.62444410     0.15080
C525        C  0.22573605  0.91844326  0.68696662     0.36730
C526        C  0.14538981  0.57113632  0.65227968     0.36630
N527        N  0.24496834  0.88843684  0.69126392    -0.43610
N528        N  0.13534376  0.60471573  0.64392020    -0.43610
C529        C  0.20052843  0.98903803  0.79007789    -0.00030
C530        C  0.19999270  0.52589328  0.81452092    -0.11900
C531        C  0.17491052  0.52851586  0.85103086     0.02210
C532        C  0.14927497  0.99377956  0.86348237    -0.00110
C533        C  0.14955154  0.95725385  0.83846313    -0.11840
C534        C  0.17469985  0.95467164  0.80222795     0.02100
H535        H  0.21919485  0.55275866  0.80493768     0.15080
H536        H  0.12997551  0.93034903  0.84698767     0.15080
C537        C  0.17454197  0.91561553  0.77915501     0.36730
C538        C  0.17688458  0.56694296  0.87528889     0.36630
N539        N  0.17472406  0.88375107  0.76156116    -0.43610
N540        N  0.17858820  0.59779414  0.89468100    -0.43610
C541        C  0.29594232  0.99452062  0.71360032    -0.00030
C542        C  0.29184552  0.53009477  0.68775639    -0.11900
C543        C  0.31646906  0.53567343  0.65114866     0.02210
C544        C  0.34641249  0.00555436  0.64023233    -0.00110
C545        C  0.35127014  0.97082989  0.66671676    -0.11840
C546        C  0.32664697  0.96506957  0.70304669     0.02100
H547        H  0.26932268  0.55362618  0.69624316     0.15080
H548        H  0.37488916  0.94819743  0.65909105     0.15080
C549        C  0.33343635  0.92811483  0.72816666     0.36730
C550        C  0.30912702  0.57164540  0.62476188     0.36510
N551        N  0.33985049  0.89802481  0.74731040    -0.43610
N552        N  0.30308132  0.60052234  0.60366309    -0.43610
C553        C  0.29168993  0.99460728  0.79388376    -0.00030
C554        C  0.30905048  0.53407031  0.80395054    -0.11900
C555        C  0.33206430  0.54053778  0.84109825     0.02210
C556        C  0.34067885  0.00604466  0.86782437    -0.00110
C557        C  0.32151500  0.96690322  0.85841967    -0.11840
C558        C  0.29636810  0.96123509  0.82255735     0.02100
H559        H  0.30397520  0.56023898  0.78276963     0.15080
H560        H  0.32624304  0.94031908  0.87910782     0.15080
C561        C  0.27683915  0.92056825  0.81564869     0.36730
C562        C  0.34496223  0.58318152  0.85039172     0.36630
N563        N  0.26176422  0.88756220  0.81076126    -0.43610
N564        N  0.35426872  0.61793510  0.85681751    -0.43610
C565        C  0.50802337  0.70539268  0.71227159    -0.00030
C566        C  0.47330686  0.70622720  0.68513282    -0.11900
C567        C  0.47169399  0.68148357  0.64835089     0.02210
C568        C  0.50512703  0.65477331  0.63849034    -0.00110
C569        C  0.03916652  0.65342390  0.66623216    -0.11840
C570        C  0.04095068  0.67819631  0.70271147     0.02100
H571        H  0.44715910  0.72591317  0.69298941     0.15080
H572        H  0.06425860  0.63225657  0.65992255     0.15080
C573        C  0.07725430  0.67524364  0.72952233     0.36730
C574        C  0.43561058  0.68460738  0.62131129     0.36630
N575        N  0.10655190  0.67264646  0.75067755    -0.43610
N576        N  0.40663201  0.68713219  0.59969333    -0.43610
C577        C  0.50807124  0.70557677  0.79251922    -0.00030
C578        C  0.47905905  0.67189256  0.79599345    -0.11900
C579        C  0.47973983  0.64443660  0.83040961     0.02210
C580        C  0.50812646  0.65181564  0.86367016    -0.00110
C581        C  0.03764904  0.68489254  0.86020680    -0.11840
C582        C  0.53849609  0.71116983  0.82460503     0.02100
H583        H  0.45683979  0.66588900  0.77070271     0.15080
H584        H  0.06064512  0.68970938  0.88501176     0.15080
C585        C  0.07291240  0.74097854  0.82044399     0.36730
C586        C  0.45494851  0.60608213  0.82823913     0.36630
N587        N  0.10114205  0.76420692  0.81749815    -0.43610
N588        N  0.43647052  0.57453395  0.82575435    -0.43610
C589        C  0.50037523  0.79652262  0.71103952    -0.00030
C590        C  0.46232908  0.81595173  0.70338839    -0.11900
C591        C  0.45629040  0.83982829  0.66687552     0.02210
C592        C  0.48969896  0.84634359  0.63774452    -0.00110
C593        C  0.02753038  0.82580365  0.64510143    -0.11840
C594        C  0.03287059  0.80054159  0.68083305     0.02100
H595        H  0.43691420  0.81199738  0.72607383     0.15080
H596        H  0.05334771  0.82958374  0.62290865     0.15080
C597        C  0.07258674  0.78067905  0.68645036     0.36730
C598        C  0.41514272  0.85616293  0.66079888     0.36630
N599        N  0.10468665  0.76517427  0.69062288    -0.43610
N600        N  0.38134488  0.86767153  0.65667675    -0.43610
C601        C  0.49143427  0.84883887  0.86481360    -0.00030
C602        C  0.02459315  0.85664504  0.83655033    -0.11900
C603        C  0.02898059  0.83281528  0.79969189     0.02210
C604        C  0.50088263  0.79896260  0.79122638    -0.00110
C605        C  0.46741459  0.79122976  0.81941941    -0.11840
C606        C  0.46234124  0.81598343  0.85587576     0.02100
H607        H  0.04689809  0.88205122  0.84293517     0.15080
H608        H  0.44500404  0.76605162  0.81270317     0.15080
C609        C  0.42790751  0.80608976  0.88412760     0.36730
C610        C  0.06299395  0.84377262  0.77139776     0.36630
N611        N  0.40022949  0.79814086  0.90672305    -0.43610
N612        N  0.09016829  0.85313858  0.74876658    -0.43610
C613        C  0.86994379  0.50828898  0.40456603     0.42590
N614        N  0.90907696  0.48768017  0.45559037     0.01480
C615        C  0.54220607  0.10929734  0.07983418    -0.06400
H616        H  0.57705553  0.11175435  0.41589843     0.06970
C617        C  0.60314886  0.45763464  0.42340983    -0.06750
Co618      Co  0.94921499  0.05992918  0.50150121     0.74180
N619        N  0.52765613  0.08586462  0.45562211    -0.25930
Co620      Co  0.55744729  0.05125189  0.50193654     0.74070
C621        C  0.62240871  0.49400180  0.40216186     0.42690
N622        N  0.50927657  0.41324854  0.45588974     0.01090
N623        N  0.58631703  0.01483396  0.45554826     0.01200
N624        N  0.97175908  0.11418177  0.07838370    -0.46780
H625        H  0.88722383  0.07787081  0.41922365     0.06960
N626        N  0.98650414  0.08868100  0.45483330     0.01480
N627        N  0.58609406  0.01525336  0.04842381     0.01220
C628        C  0.62473436  0.99481723  0.09966263     0.42830
N629        N  0.96815574  0.41628647  0.45583031    -0.25390
C630        C  0.89115465  0.04488055  0.08040710    -0.06310
N631        N  0.88326647  0.47410191  0.42559383    -0.46490
N632        N  0.61151134  0.02904239  0.07876891    -0.46710
C633        C  0.87241128  0.00800051  0.10125574     0.42600
N634        N  0.98558083  0.08975894  0.04759206     0.01470
N635        N  0.96782462  0.41668599  0.04804984    -0.25410
N636        N  0.91355521  0.02887272  0.45579738    -0.25900
N637        N  0.50888432  0.41361834  0.04841084     0.01110
H638        H  0.91852750  0.38898847  0.08550562     0.07000
H639        H  0.60801903  0.42524235  0.08626094     0.07040
N640        N  0.52664667  0.08633671  0.04777661    -0.25950
N641        N  0.58154072  0.47362020  0.45583677    -0.25560
N642        N  0.90919333  0.48802977  0.04815032     0.01480
C643        C  0.00804810  0.12479081  0.40156654     0.42870
C644        C  0.95256805  0.39319806  0.42369707    -0.06810
N645        N  0.58175433  0.47397575  0.04809064    -0.25560
H646        H  0.60542880  0.42458955  0.41619731     0.07020
N647        N  0.97339560  0.11164202  0.42279560    -0.46780
H648        H  0.91981906  0.38971721  0.41566881     0.07010
C649        C  0.48776013  0.37493490  0.10049021     0.42710
C650        C  0.89022555  0.04477210  0.42486734    -0.06310
Co651      Co  0.93781990  0.45156787  0.00185137     0.73820
N652        N  0.52316158  0.38921076  0.42487706    -0.46500
C653        C  0.50571728  0.12773904  0.10014483     0.42970
N654        N  0.88526596  0.47399412  0.07962914    -0.46490
Co655      Co  0.54587310  0.44294571  0.00212254     0.73890
C656        C  0.60496620  0.45823292  0.07927510    -0.06820
C657        C  0.54410588  0.10813053  0.42335187    -0.06380
N658        N  0.91328702  0.02933422  0.04793423    -0.25910
N659        N  0.61052362  0.02837290  0.42394019    -0.46670
H660        H  0.57501099  0.11334861  0.08709695     0.06980
C661        C  0.95158897  0.39329593  0.07960837    -0.06790
Cl662      Cl  0.49757935  0.00142084  0.00190461    -0.49790
C663        C  0.98922504  0.37512938  0.40340155     0.42740
H664        H  0.88893744  0.07774988  0.08842368     0.06950
N665        N  0.52203292  0.38897008  0.07904391    -0.46510
C666        C  0.00481330  0.27327431  0.25171113     0.00690
C667        C  0.00806437  0.23050913  0.25236029     0.00690
C668        C  0.76955986  0.48989396  0.25265871     0.00690
C669        C  0.72688158  0.48765363  0.25086298     0.00690
C670        C  0.70408971  0.48958636  0.20982559    -0.00030
C671        C  0.68369435  0.02672422  0.19999596    -0.11900
C672        C  0.66039302  0.03025641  0.16281311     0.02210
C673        C  0.65403450  0.49488780  0.13626927    -0.00110
C674        C  0.67580365  0.45812442  0.14544444    -0.11840
C675        C  0.70181532  0.45576563  0.18099877     0.02100
H676        H  0.68699052  0.05354375  0.22105636     0.15080
H677        H  0.67313738  0.43126412  0.12444349     0.15080
C678        C  0.72575578  0.41844527  0.18696580     0.36730
C679        C  0.64537709  0.07113699  0.15227565     0.36630
N680        N  0.74498903  0.38843942  0.19126271    -0.43610
N681        N  0.63533294  0.10471670  0.14391473    -0.43610
C682        C  0.70054726  0.48903914  0.29007866    -0.00030
C683        C  0.69997176  0.02589311  0.31451855    -0.11900
C684        C  0.67488922  0.02851583  0.35102820     0.02210
C685        C  0.64929439  0.49378051  0.36348367    -0.00110
C686        C  0.64956899  0.45725568  0.33846302    -0.11840
C687        C  0.67471693  0.45467361  0.30222752     0.02100
H688        H  0.71917263  0.05275904  0.30493433     0.15080
H689        H  0.62999154  0.43035157  0.34698660     0.15080
C690        C  0.67455678  0.41561854  0.27915273     0.36730
C691        C  0.67686092  0.06694413  0.37528442     0.36630
N692        N  0.67473722  0.38375511  0.26155693    -0.43610
N693        N  0.67856263  0.09779631  0.39467502    -0.43610
C694        C  0.79596003  0.49452219  0.21359912    -0.00030
C695        C  0.79182920  0.03009416  0.18775867    -0.11900
C696        C  0.81645270  0.03567282  0.15115091     0.02210
C697        C  0.84643018  0.50555596  0.14023119    -0.00110
C698        C  0.85128940  0.47083268  0.16671681    -0.11840
C699        C  0.82666616  0.46507228  0.20304666     0.02100
H700        H  0.76930731  0.05362621  0.19624621     0.15080
H701        H  0.87490982  0.44820139  0.15909213     0.15080
C702        C  0.83345701  0.42811866  0.22816791     0.36730
C703        C  0.80911166  0.07164571  0.12476511     0.36510
N704        N  0.83987215  0.39802966  0.24731290    -0.43610
N705        N  0.80306663  0.10052338  0.10366712    -0.43610
C706        C  0.79170905  0.49460906  0.29388246    -0.00030
C707        C  0.80902881  0.03406919  0.30395355    -0.11900
C708        C  0.83204179  0.04053672  0.34110185     0.02210
C709        C  0.84069890  0.50604623  0.36782232    -0.00110
C710        C  0.82153300  0.46690542  0.35841904    -0.11840
C711        C  0.79638586  0.46123739  0.32255690     0.02100
H712        H  0.80395201  0.06023832  0.28277366     0.15080
H713        H  0.82625966  0.44032171  0.37910812     0.15080
C714        C  0.77685559  0.42057101  0.31564892     0.36730
C715        C  0.84493558  0.08318105  0.35039802     0.36630
N716        N  0.76177949  0.38756544  0.31076173    -0.43610
N717        N  0.85423872  0.11793505  0.35682607    -0.43610
C718        C  0.00801830  0.20539021  0.21227187    -0.00030
C719        C  0.97330251  0.20623010  0.18513242    -0.11900
C720        C  0.97168621  0.18148605  0.14835087     0.02210
C721        C  0.00511462  0.15476973  0.13849175    -0.00110
C722        C  0.53915283  0.15341420  0.16623472    -0.11840
C723        C  0.54094081  0.17818754  0.20271321     0.02100
H724        H  0.94715803  0.22592074  0.19298804     0.15080
H725        H  0.56424085  0.13224150  0.15992646     0.15080
C726        C  0.57724342  0.17522923  0.22952465     0.36730
C727        C  0.93560459  0.18461593  0.12130976     0.36630
N728        N  0.60654020  0.17262739  0.25068030    -0.43610
N729        N  0.90662751  0.18714561  0.09969049    -0.43610
C730        C  0.00806524  0.20557559  0.29251947    -0.00030
C731        C  0.97904707  0.17189662  0.29599444    -0.11900
C732        C  0.97972301  0.14444103  0.33041116     0.02210
C733        C  0.00811103  0.15181557  0.36367143    -0.00110
C734        C  0.53763895  0.18488768  0.36020755    -0.11840
C735        C  0.03849068  0.21116416  0.32460531     0.02100
H736        H  0.95682693  0.16589651  0.27070374     0.15080
H737        H  0.56063598  0.18970094  0.38501223     0.15080
C738        C  0.57291219  0.24096674  0.32044377     0.36730
C739        C  0.95492544  0.10609059  0.32824100     0.36630
N740        N  0.60114597  0.26418999  0.31749765    -0.43610
N741        N  0.93644246  0.07454530  0.32575617    -0.43610
C742        C  0.00038362  0.29652199  0.21103898    -0.00030
C743        C  0.96233940  0.31595450  0.20338757    -0.11900
C744        C  0.95630281  0.33983084  0.16687425     0.02210
C745        C  0.98971213  0.34634353  0.13774354    -0.00110
C746        C  0.52754169  0.32580031  0.14510076    -0.11840
C747        C  0.53287921  0.30053737  0.18083236     0.02100
H748        H  0.93692405  0.31200240  0.22607284     0.15080
H749        H  0.55335926  0.32957794  0.12290791     0.15080
C750        C  0.57259244  0.28066895  0.18644901     0.36730
C751        C  0.91515597  0.35616706  0.16079645     0.36630
N752        N  0.60468979  0.26515894  0.19062113    -0.43610
N753        N  0.88135854  0.36767646  0.15667330    -0.43610
C754        C  0.99144967  0.34883921  0.36481348    -0.00030
C755        C  0.52461017  0.35664061  0.33655082    -0.11900
C756        C  0.52899475  0.33281019  0.29969233     0.02210
C757        C  0.00089160  0.29896210  0.29122585    -0.00110
C758        C  0.96742224  0.29123393  0.31941833    -0.11840
C759        C  0.96235232  0.31598766  0.35587507     0.02100
H760        H  0.54691867  0.38204351  0.34293616     0.15080
H761        H  0.94500812  0.26605912  0.31270156     0.15080
C762        C  0.92791753  0.30609751  0.38412677     0.36730
C763        C  0.56301097  0.34376133  0.27139943     0.36630
N764        N  0.90023872  0.29815121  0.40672210    -0.43610
N765        N  0.59018801  0.35312162  0.24876932    -0.43610
C766        C  0.86994379  0.50828898  0.90456603     0.42590
N767        N  0.90907696  0.48768017  0.95559037     0.01480
C768        C  0.54220607  0.10929734  0.57983418    -0.06400
H769        H  0.57705553  0.11175435  0.91589843     0.06970
C770        C  0.60314886  0.45763464  0.92340983    -0.06750
Co771      Co  0.94921499  0.05992918  0.00150121     0.74180
N772        N  0.52765613  0.08586462  0.95562211    -0.25930
Co773      Co  0.55744729  0.05125189  0.00193654     0.74070
C774        C  0.62240871  0.49400180  0.90216186     0.42690
N775        N  0.50927657  0.41324854  0.95588974     0.01090
N776        N  0.58631703  0.01483396  0.95554826     0.01200
N777        N  0.97175908  0.11418177  0.57838370    -0.46780
H778        H  0.88722383  0.07787082  0.91922365     0.06960
N779        N  0.98650414  0.08868100  0.95483330     0.01480
N780        N  0.58609406  0.01525336  0.54842381     0.01220
C781        C  0.62473436  0.99481723  0.59966263     0.42830
N782        N  0.96815574  0.41628647  0.95583031    -0.25390
C783        C  0.89115465  0.04488055  0.58040710    -0.06310
N784        N  0.88326647  0.47410190  0.92559383    -0.46490
N785        N  0.61151133  0.02904239  0.57876891    -0.46710
C786        C  0.87241128  0.00800051  0.60125574     0.42600
N787        N  0.98558083  0.08975893  0.54759206     0.01470
N788        N  0.96782462  0.41668599  0.54804984    -0.25410
N789        N  0.91355521  0.02887272  0.95579738    -0.25900
N790        N  0.50888432  0.41361834  0.54841084     0.01110
H791        H  0.91852750  0.38898847  0.58550562     0.07000
H792        H  0.60801903  0.42524235  0.58626094     0.07040
N793        N  0.52664667  0.08633671  0.54777661    -0.25950
N794        N  0.58154072  0.47362020  0.95583677    -0.25560
N795        N  0.90919333  0.48802977  0.54815032     0.01480
C796        C  0.00804810  0.12479082  0.90156654     0.42870
C797        C  0.95256805  0.39319805  0.92369707    -0.06810
N798        N  0.58175433  0.47397575  0.54809064    -0.25560
H799        H  0.60542880  0.42458955  0.91619731     0.07020
N800        N  0.97339561  0.11164202  0.92279560    -0.46780
H801        H  0.91981906  0.38971721  0.91566881     0.07010
C802        C  0.48776013  0.37493490  0.60049021     0.42710
C803        C  0.89022555  0.04477210  0.92486734    -0.06310
Co804      Co  0.93781990  0.45156787  0.50185137     0.73820
N805        N  0.52316158  0.38921076  0.92487706    -0.46500
C806        C  0.50571728  0.12773904  0.60014483     0.42970
N807        N  0.88526596  0.47399412  0.57962914    -0.46490
Co808      Co  0.54587310  0.44294571  0.50212254     0.73890
C809        C  0.60496620  0.45823292  0.57927510    -0.06820
C810        C  0.54410588  0.10813053  0.92335186    -0.06380
N811        N  0.91328702  0.02933422  0.54793423    -0.25910
N812        N  0.61052362  0.02837291  0.92394019    -0.46670
H813        H  0.57501099  0.11334861  0.58709695     0.06980
C814        C  0.95158897  0.39329594  0.57960837    -0.06790
Cl815      Cl  0.49757935  0.00142083  0.50190461    -0.49790
C816        C  0.98922503  0.37512938  0.90340155     0.42740
H817        H  0.88893744  0.07774988  0.58842368     0.06950
N818        N  0.52203292  0.38897008  0.57904391    -0.46510
C819        C  0.00481329  0.27327431  0.75171113     0.00690
C820        C  0.00806437  0.23050913  0.75236029     0.00690
C821        C  0.76955987  0.48989396  0.75265871     0.00690
C822        C  0.72688158  0.48765363  0.75086298     0.00690
C823        C  0.70408971  0.48958636  0.70982558    -0.00030
C824        C  0.68369435  0.02672422  0.69999596    -0.11900
C825        C  0.66039302  0.03025641  0.66281311     0.02210
C826        C  0.65403450  0.49488780  0.63626927    -0.00110
C827        C  0.67580365  0.45812442  0.64544443    -0.11840
C828        C  0.70181533  0.45576563  0.68099877     0.02100
H829        H  0.68699052  0.05354375  0.72105636     0.15080
H830        H  0.67313738  0.43126412  0.62444349     0.15080
C831        C  0.72575579  0.41844528  0.68696580     0.36730
C832        C  0.64537709  0.07113699  0.65227565     0.36630
N833        N  0.74498903  0.38843942  0.69126271    -0.43610
N834        N  0.63533293  0.10471670  0.64391473    -0.43610
C835        C  0.70054726  0.48903914  0.79007866    -0.00030
C836        C  0.69997176  0.02589311  0.81451855    -0.11900
C837        C  0.67488923  0.02851583  0.85102820     0.02210
C838        C  0.64929439  0.49378051  0.86348367    -0.00110
C839        C  0.64956899  0.45725568  0.83846301    -0.11840
C840        C  0.67471693  0.45467361  0.80222752     0.02100
H841        H  0.71917263  0.05275904  0.80493433     0.15080
H842        H  0.62999154  0.43035157  0.84698660     0.15080
C843        C  0.67455678  0.41561854  0.77915273     0.36730
C844        C  0.67686092  0.06694413  0.87528442     0.36630
N845        N  0.67473722  0.38375511  0.76155693    -0.43610
N846        N  0.67856264  0.09779631  0.89467503    -0.43610
C847        C  0.79596003  0.49452219  0.71359912    -0.00030
C848        C  0.79182920  0.03009415  0.68775867    -0.11900
C849        C  0.81645270  0.03567281  0.65115091     0.02210
C850        C  0.84643018  0.50555596  0.64023119    -0.00110
C851        C  0.85128940  0.47083268  0.66671681    -0.11840
C852        C  0.82666616  0.46507228  0.70304666     0.02100
H853        H  0.76930731  0.05362621  0.69624620     0.15080
H854        H  0.87490982  0.44820139  0.65909213     0.15080
C855        C  0.83345701  0.42811867  0.72816791     0.36730
C856        C  0.80911165  0.07164570  0.62476510     0.36510
N857        N  0.83987215  0.39802967  0.74731290    -0.43610
N858        N  0.80306662  0.10052337  0.60366710    -0.43610
C859        C  0.79170906  0.49460906  0.79388246    -0.00030
C860        C  0.80902882  0.03406919  0.80395354    -0.11900
C861        C  0.83204179  0.04053672  0.84110185     0.02210
C862        C  0.84069890  0.50604623  0.86782232    -0.00110
C863        C  0.82153300  0.46690542  0.85841904    -0.11840
C864        C  0.79638586  0.46123739  0.82255690     0.02100
H865        H  0.80395201  0.06023832  0.78277366     0.15080
H866        H  0.82625966  0.44032171  0.87910812     0.15080
C867        C  0.77685559  0.42057101  0.81564892     0.36730
C868        C  0.84493559  0.08318105  0.85039801     0.36630
N869        N  0.76177948  0.38756544  0.81076173    -0.43610
N870        N  0.85423873  0.11793505  0.85682607    -0.43610
C871        C  0.00801830  0.20539021  0.71227187    -0.00030
C872        C  0.97330251  0.20623010  0.68513242    -0.11900
C873        C  0.97168621  0.18148605  0.64835087     0.02210
C874        C  0.00511462  0.15476973  0.63849175    -0.00110
C875        C  0.53915283  0.15341421  0.66623472    -0.11840
C876        C  0.54094081  0.17818754  0.70271321     0.02100
H877        H  0.94715803  0.22592074  0.69298804     0.15080
H878        H  0.56424085  0.13224150  0.65992646     0.15080
C879        C  0.57724343  0.17522924  0.72952464     0.36730
C880        C  0.93560458  0.18461593  0.62130977     0.36630
N881        N  0.60654020  0.17262739  0.75068030    -0.43610
N882        N  0.90662751  0.18714560  0.59969050    -0.43610
C883        C  0.00806524  0.20557559  0.79251947    -0.00030
C884        C  0.97904707  0.17189662  0.79599444    -0.11900
C885        C  0.97972302  0.14444103  0.83041116     0.02210
C886        C  0.00811103  0.15181557  0.86367142    -0.00110
C887        C  0.53763895  0.18488768  0.86020755    -0.11840
C888        C  0.03849068  0.21116416  0.82460531     0.02100
H889        H  0.95682693  0.16589651  0.77070374     0.15080
H890        H  0.56063598  0.18970095  0.88501223     0.15080
C891        C  0.57291219  0.24096674  0.82044377     0.36730
C892        C  0.95492544  0.10609058  0.82824100     0.36630
N893        N  0.60114597  0.26418999  0.81749765    -0.43610
N894        N  0.93644247  0.07454530  0.82575617    -0.43610
C895        C  0.00038362  0.29652199  0.71103898    -0.00030
C896        C  0.96233940  0.31595450  0.70338757    -0.11900
C897        C  0.95630280  0.33983084  0.66687425     0.02210
C898        C  0.98971213  0.34634353  0.63774354    -0.00110
C899        C  0.52754168  0.32580031  0.64510076    -0.11840
C900        C  0.53287921  0.30053737  0.68083236     0.02100
H901        H  0.93692405  0.31200240  0.72607284     0.15080
H902        H  0.55335926  0.32957794  0.62290791     0.15080
C903        C  0.57259244  0.28066895  0.68644901     0.36730
C904        C  0.91515597  0.35616706  0.66079645     0.36630
N905        N  0.60468979  0.26515894  0.69062113    -0.43610
N906        N  0.88135854  0.36767646  0.65667330    -0.43610
C907        C  0.99144967  0.34883921  0.86481348    -0.00030
C908        C  0.52461017  0.35664061  0.83655082    -0.11900
C909        C  0.52899475  0.33281019  0.79969233     0.02210
C910        C  0.00089160  0.29896210  0.79122585    -0.00110
C911        C  0.96742223  0.29123393  0.81941833    -0.11840
C912        C  0.96235232  0.31598766  0.85587507     0.02100
H913        H  0.54691867  0.38204352  0.84293616     0.15080
H914        H  0.94500811  0.26605911  0.81270156     0.15080
C915        C  0.92791753  0.30609751  0.88412677     0.36730
C916        C  0.56301097  0.34376133  0.77139943     0.36630
N917        N  0.90023872  0.29815121  0.90672210    -0.43610
N918        N  0.59018801  0.35312162  0.74876932    -0.43610
C919        C  0.86992416  0.00828755  0.40456786     0.42590
N920        N  0.90905834  0.98767877  0.45559153     0.01480
C921        C  0.54222206  0.60930028  0.07983437    -0.06400
H922        H  0.57707328  0.61175678  0.41589773     0.06970
C923        C  0.60313005  0.95763350  0.42340892    -0.06750
Co924      Co  0.94923299  0.55993028  0.50150044     0.74180
N925        N  0.52767440  0.58586632  0.45562190    -0.25930
Co926      Co  0.55746526  0.55125341  0.50193695     0.74070
C927        C  0.62238943  0.99400074  0.40216062     0.42690
N928        N  0.50925854  0.91324748  0.45589031     0.01090
N929        N  0.58633557  0.51483518  0.45554899     0.01200
N930        N  0.97177508  0.61418323  0.07838215    -0.46780
H931        H  0.88724253  0.57787225  0.41922258     0.06960
N932        N  0.98652235  0.58868210  0.45483302     0.01480
N933        N  0.58611135  0.51525441  0.04842459     0.01220
C934        C  0.62475113  0.49481796  0.09966374     0.42830
N935        N  0.96813764  0.91628471  0.45583091    -0.25390
C936        C  0.89117208  0.54488194  0.08040586    -0.06310
N937        N  0.88324727  0.97410051  0.42559547    -0.46490
N938        N  0.61152833  0.52904324  0.07877004    -0.46710
C939        C  0.87242879  0.50800194  0.10125454     0.42600
N940        N  0.98559796  0.58976013  0.04759139     0.01470
N941        N  0.96780740  0.91668484  0.04805071    -0.25410
N942        N  0.91357378  0.52887408  0.45579633    -0.25900
N943        N  0.50886716  0.91361778  0.04841099     0.01110
H944        H  0.91851153  0.88898732  0.08550847     0.07000
H945        H  0.60800200  0.92524153  0.08626033     0.07040
N946        N  0.52666385  0.58633858  0.04777679    -0.25950
N947        N  0.58152232  0.97361902  0.45583615    -0.25560
N948        N  0.90917566  0.98802843  0.04815133     0.01480
C949        C  0.00806543  0.62479205  0.40156606     0.42870
C950        C  0.95255043  0.89319560  0.42369775    -0.06810
N951        N  0.58173701  0.97397476  0.04809008    -0.25560
H952        H  0.60540998  0.92458840  0.41619645     0.07020
N953        N  0.97341337  0.61164264  0.42279527    -0.46780
H954        H  0.91980153  0.88971381  0.41566939     0.07010
C955        C  0.48774484  0.87493477  0.10049128     0.42710
C956        C  0.89024454  0.54477352  0.42486602    -0.06310
Co957      Co  0.93780189  0.95156637  0.00185225     0.73820
N958        N  0.52314407  0.88920989  0.42487784    -0.46500
C959        C  0.50573227  0.62774178  0.10014390     0.42970
N960        N  0.88524832  0.97399276  0.07963016    -0.46490
Co961      Co  0.54585526  0.94294484  0.00212242     0.73890
C962        C  0.60494917  0.95823208  0.07927437    -0.06820
C963        C  0.54412372  0.60813251  0.42335142    -0.06380
N964        N  0.91330462  0.52933554  0.04793315    -0.25910
N965        N  0.61054268  0.52837403  0.42394124    -0.46670
H966        H  0.57502678  0.61335246  0.08709766     0.06980
C967        C  0.95157279  0.89329498  0.07961005    -0.06790
Cl968      Cl  0.49759747  0.50142208  0.00190439    -0.49790
C969        C  0.98920798  0.87512767  0.40340237     0.42740
H970        H  0.88895475  0.57775128  0.08842238     0.06950
N971        N  0.52201680  0.88897025  0.07904403    -0.46510
C972        C  0.00480767  0.77327542  0.25171165     0.00690
C973        C  0.00806582  0.73051089  0.25236043     0.00690
C974        C  0.76954159  0.98989216  0.25265946     0.00690
C975        C  0.72686334  0.98765238  0.25086277     0.00690
C976        C  0.70407227  0.98958555  0.20982492    -0.00030
C977        C  0.68370995  0.52672424  0.19999789    -0.11900
C978        C  0.66040810  0.53025633  0.16281545     0.02210
C979        C  0.65401786  0.99488725  0.13626806    -0.00110
C980        C  0.67578549  0.95812323  0.14544433    -0.11840
C981        C  0.70179681  0.95576428  0.18099886     0.02100
H982        H  0.68700510  0.55354335  0.22105899     0.15080
H983        H  0.67311832  0.93126247  0.12444410     0.15080
C984        C  0.72573605  0.91844325  0.18696662     0.36730
C985        C  0.64538981  0.57113632  0.15227968     0.36630
N986        N  0.74496834  0.88843683  0.19126392    -0.43610
N987        N  0.63534376  0.60471573  0.14392020    -0.43610
C988        C  0.70052842  0.98903802  0.29007789    -0.00030
C989        C  0.69999270  0.52589329  0.31452092    -0.11900
C990        C  0.67491052  0.52851586  0.35103086     0.02210
C991        C  0.64927497  0.99377956  0.36348237    -0.00110
C992        C  0.64955154  0.95725384  0.33846313    -0.11840
C993        C  0.67469985  0.95467163  0.30222795     0.02100
H994        H  0.71919485  0.55275866  0.30493768     0.15080
H995        H  0.62997552  0.93034902  0.34698768     0.15080
C996        C  0.67454197  0.91561552  0.27915501     0.36730
C997        C  0.67688458  0.56694296  0.37528889     0.36630
N998        N  0.67472406  0.88375107  0.26156116    -0.43610
N999        N  0.67858820  0.59779415  0.39468100    -0.43610
C1000       C  0.79594232  0.99452061  0.21360032    -0.00030
C1001       C  0.79184552  0.53009478  0.18775639    -0.11900
C1002       C  0.81646906  0.53567344  0.15114866     0.02210
C1003       C  0.84641249  0.00555436  0.14023233    -0.00110
C1004       C  0.85127013  0.97082988  0.16671676    -0.11840
C1005       C  0.82664697  0.96506956  0.20304668     0.02100
H1006       H  0.76932268  0.55362618  0.19624316     0.15080
H1007       H  0.87488916  0.94819742  0.15909105     0.15080
C1008       C  0.83343634  0.92811482  0.22816666     0.36730
C1009       C  0.80912702  0.57164541  0.12476188     0.36510
N1010       N  0.83985049  0.89802480  0.24731039    -0.43610
N1011       N  0.80308132  0.60052234  0.10366309    -0.43610
C1012       C  0.79168993  0.99460727  0.29388376    -0.00030
C1013       C  0.80905048  0.53407031  0.30395054    -0.11900
C1014       C  0.83206430  0.54053778  0.34109825     0.02210
C1015       C  0.84067885  0.00604465  0.36782437    -0.00110
C1016       C  0.82151500  0.96690321  0.35841967    -0.11840
C1017       C  0.79636810  0.96123509  0.32255734     0.02100
H1018       H  0.80397520  0.56023898  0.28276963     0.15080
H1019       H  0.82624304  0.94031907  0.37910781     0.15080
C1020       C  0.77683915  0.92056824  0.31564869     0.36730
C1021       C  0.84496223  0.58318152  0.35039172     0.36630
N1022       N  0.76176422  0.88756219  0.31076126    -0.43610
N1023       N  0.85426872  0.61793510  0.35681751    -0.43610
C1024       C  0.00802338  0.70539268  0.21227159    -0.00030
C1025       C  0.97330687  0.70622720  0.18513282    -0.11900
C1026       C  0.97169399  0.68148357  0.14835089     0.02210
C1027       C  0.00512703  0.65477331  0.13849034    -0.00110
C1028       C  0.53916652  0.65342390  0.16623217    -0.11840
C1029       C  0.54095068  0.67819631  0.20271148     0.02100
H1030       H  0.94715910  0.72591317  0.19298941     0.15080
H1031       H  0.56425860  0.63225657  0.15992255     0.15080
C1032       C  0.57725430  0.67524363  0.22952233     0.36730
C1033       C  0.93561059  0.68460738  0.12131129     0.36630
N1034       N  0.60655189  0.67264646  0.25067756    -0.43610
N1035       N  0.90663201  0.68713219  0.09969333    -0.43610
C1036       C  0.00807124  0.70557677  0.29251922    -0.00030
C1037       C  0.97905905  0.67189256  0.29599345    -0.11900
C1038       C  0.97973984  0.64443660  0.33040961     0.02210
C1039       C  0.00812646  0.65181564  0.36367016    -0.00110
C1040       C  0.53764903  0.68489254  0.36020680    -0.11840
C1041       C  0.03849609  0.71116982  0.32460503     0.02100
H1042       H  0.95683979  0.66588900  0.27070271     0.15080
H1043       H  0.56064512  0.68970938  0.38501176     0.15080
C1044       C  0.57291239  0.74097854  0.32044399     0.36730
C1045       C  0.95494851  0.60608213  0.32823913     0.36630
N1046       N  0.60114205  0.76420692  0.31749815    -0.43610
N1047       N  0.93647052  0.57453395  0.32575435    -0.43610
C1048       C  0.00037524  0.79652262  0.21103952    -0.00030
C1049       C  0.96232909  0.81595172  0.20338839    -0.11900
C1050       C  0.95629040  0.83982829  0.16687552     0.02210
C1051       C  0.98969897  0.84634359  0.13774452    -0.00110
C1052       C  0.52753038  0.82580365  0.14510143    -0.11840
C1053       C  0.53287058  0.80054159  0.18083305     0.02100
H1054       H  0.93691420  0.81199738  0.22607383     0.15080
H1055       H  0.55334770  0.82958374  0.12290865     0.15080
C1056       C  0.57258674  0.78067905  0.18645036     0.36730
C1057       C  0.91514273  0.85616292  0.16079888     0.36630
N1058       N  0.60468664  0.76517427  0.19062288    -0.43610
N1059       N  0.88134488  0.86767153  0.15667675    -0.43610
C1060       C  0.99143427  0.84883887  0.36481360    -0.00030
C1061       C  0.52459315  0.85664504  0.33655033    -0.11900
C1062       C  0.52898059  0.83281528  0.29969189     0.02210
C1063       C  0.00088264  0.79896260  0.29122638    -0.00110
C1064       C  0.96741460  0.79122976  0.31941940    -0.11840
C1065       C  0.96234125  0.81598343  0.35587576     0.02100
H1066       H  0.54689808  0.88205122  0.34293517     0.15080
H1067       H  0.94500405  0.76605162  0.31270317     0.15080
C1068       C  0.92790751  0.80608976  0.38412760     0.36730
C1069       C  0.56299395  0.84377262  0.27139776     0.36630
N1070       N  0.90022950  0.79814086  0.40672305    -0.43610
N1071       N  0.59016828  0.85313858  0.24876658    -0.43610
C1072       C  0.86992416  0.00828755  0.90456786     0.42590
N1073       N  0.90905834  0.98767877  0.95559153     0.01480
C1074       C  0.54222206  0.60930028  0.57983437    -0.06400
H1075       H  0.57707328  0.61175678  0.91589773     0.06970
C1076       C  0.60313005  0.95763350  0.92340892    -0.06750
Co1077     Co  0.94923299  0.55993028  0.00150044     0.74180
N1078       N  0.52767440  0.58586631  0.95562190    -0.25930
Co1079     Co  0.55746526  0.55125341  0.00193695     0.74070
C1080       C  0.62238943  0.99400074  0.90216062     0.42690
N1081       N  0.50925854  0.91324748  0.95589031     0.01090
N1082       N  0.58633557  0.51483518  0.95554899     0.01200
N1083       N  0.97177508  0.61418323  0.57838215    -0.46780
H1084       H  0.88724253  0.57787225  0.91922258     0.06960
N1085       N  0.98652235  0.58868210  0.95483302     0.01480
N1086       N  0.58611135  0.51525441  0.54842459     0.01220
C1087       C  0.62475113  0.49481796  0.59966374     0.42830
N1088       N  0.96813764  0.91628471  0.95583091    -0.25390
C1089       C  0.89117208  0.54488194  0.58040586    -0.06310
N1090       N  0.88324727  0.97410052  0.92559547    -0.46490
N1091       N  0.61152833  0.52904324  0.57877004    -0.46710
C1092       C  0.87242879  0.50800194  0.60125453     0.42600
N1093       N  0.98559796  0.58976013  0.54759139     0.01470
N1094       N  0.96780740  0.91668484  0.54805071    -0.25410
N1095       N  0.91357377  0.52887408  0.95579633    -0.25900
N1096       N  0.50886716  0.91361778  0.54841099     0.01110
H1097       H  0.91851153  0.88898732  0.58550847     0.07000
H1098       H  0.60800200  0.92524153  0.58626033     0.07040
N1099       N  0.52666385  0.58633858  0.54777679    -0.25950
N1100       N  0.58152232  0.97361902  0.95583615    -0.25560
N1101       N  0.90917566  0.98802843  0.54815133     0.01480
C1102       C  0.00806543  0.62479205  0.90156606     0.42870
C1103       C  0.95255043  0.89319561  0.92369775    -0.06810
N1104       N  0.58173701  0.97397476  0.54809008    -0.25560
H1105       H  0.60540998  0.92458840  0.91619645     0.07020
N1106       N  0.97341337  0.61164264  0.92279527    -0.46780
H1107       H  0.91980153  0.88971382  0.91566939     0.07010
C1108       C  0.48774484  0.87493477  0.60049128     0.42710
C1109       C  0.89024454  0.54477352  0.92486602    -0.06310
Co1110     Co  0.93780189  0.95156637  0.50185225     0.73820
N1111       N  0.52314407  0.88920989  0.92487784    -0.46500
C1112       C  0.50573227  0.62774178  0.60014390     0.42970
N1113       N  0.88524832  0.97399276  0.57963016    -0.46490
Co1114     Co  0.54585526  0.94294484  0.50212242     0.73890
C1115       C  0.60494917  0.95823208  0.57927437    -0.06820
C1116       C  0.54412372  0.60813251  0.92335142    -0.06380
N1117       N  0.91330462  0.52933554  0.54793315    -0.25910
N1118       N  0.61054268  0.52837403  0.92394124    -0.46670
H1119       H  0.57502678  0.61335246  0.58709766     0.06980
C1120       C  0.95157279  0.89329498  0.57961005    -0.06790
Cl1121     Cl  0.49759747  0.50142208  0.50190439    -0.49790
C1122       C  0.98920798  0.87512767  0.90340237     0.42740
H1123       H  0.88895475  0.57775128  0.58842238     0.06950
N1124       N  0.52201680  0.88897025  0.57904403    -0.46510
C1125       C  0.00480767  0.77327542  0.75171165     0.00690
C1126       C  0.00806582  0.73051089  0.75236043     0.00690
C1127       C  0.76954159  0.98989216  0.75265946     0.00690
C1128       C  0.72686335  0.98765238  0.75086277     0.00690
C1129       C  0.70407227  0.98958555  0.70982492    -0.00030
C1130       C  0.68370995  0.52672424  0.69999789    -0.11900
C1131       C  0.66040810  0.53025633  0.66281545     0.02210
C1132       C  0.65401786  0.99488725  0.63626806    -0.00110
C1133       C  0.67578549  0.95812323  0.64544433    -0.11840
C1134       C  0.70179681  0.95576428  0.68099886     0.02100
H1135       H  0.68700509  0.55354335  0.72105899     0.15080
H1136       H  0.67311833  0.93126247  0.62444410     0.15080
C1137       C  0.72573605  0.91844326  0.68696662     0.36730
C1138       C  0.64538981  0.57113632  0.65227968     0.36630
N1139       N  0.74496834  0.88843683  0.69126392    -0.43610
N1140       N  0.63534376  0.60471573  0.64392020    -0.43610
C1141       C  0.70052843  0.98903803  0.79007789    -0.00030
C1142       C  0.69999270  0.52589329  0.81452092    -0.11900
C1143       C  0.67491052  0.52851586  0.85103086     0.02210
C1144       C  0.64927497  0.99377956  0.86348237    -0.00110
C1145       C  0.64955154  0.95725384  0.83846313    -0.11840
C1146       C  0.67469985  0.95467163  0.80222795     0.02100
H1147       H  0.71919485  0.55275866  0.80493768     0.15080
H1148       H  0.62997551  0.93034902  0.84698767     0.15080
C1149       C  0.67454197  0.91561552  0.77915501     0.36730
C1150       C  0.67688458  0.56694296  0.87528889     0.36630
N1151       N  0.67472406  0.88375107  0.76156116    -0.43610
N1152       N  0.67858821  0.59779415  0.89468100    -0.43610
C1153       C  0.79594232  0.99452061  0.71360031    -0.00030
C1154       C  0.79184552  0.53009478  0.68775639    -0.11900
C1155       C  0.81646906  0.53567344  0.65114866     0.02210
C1156       C  0.84641249  0.00555436  0.64023233    -0.00110
C1157       C  0.85127014  0.97082988  0.66671676    -0.11840
C1158       C  0.82664697  0.96506956  0.70304669     0.02100
H1159       H  0.76932268  0.55362618  0.69624316     0.15080
H1160       H  0.87488916  0.94819743  0.65909105     0.15080
C1161       C  0.83343635  0.92811482  0.72816666     0.36730
C1162       C  0.80912702  0.57164540  0.62476188     0.36510
N1163       N  0.83985050  0.89802481  0.74731040    -0.43610
N1164       N  0.80308132  0.60052234  0.60366309    -0.43610
C1165       C  0.79168993  0.99460727  0.79388376    -0.00030
C1166       C  0.80905048  0.53407031  0.80395054    -0.11900
C1167       C  0.83206430  0.54053778  0.84109825     0.02210
C1168       C  0.84067885  0.00604465  0.86782437    -0.00110
C1169       C  0.82151500  0.96690322  0.85841967    -0.11840
C1170       C  0.79636810  0.96123509  0.82255735     0.02100
H1171       H  0.80397521  0.56023898  0.78276963     0.15080
H1172       H  0.82624304  0.94031908  0.87910782     0.15080
C1173       C  0.77683915  0.92056824  0.81564869     0.36730
C1174       C  0.84496223  0.58318152  0.85039171     0.36630
N1175       N  0.76176422  0.88756220  0.81076126    -0.43610
N1176       N  0.85426872  0.61793510  0.85681751    -0.43610
C1177       C  0.00802338  0.70539268  0.71227159    -0.00030
C1178       C  0.97330687  0.70622720  0.68513282    -0.11900
C1179       C  0.97169399  0.68148357  0.64835089     0.02210
C1180       C  0.00512703  0.65477331  0.63849034    -0.00110
C1181       C  0.53916652  0.65342390  0.66623217    -0.11840
C1182       C  0.54095068  0.67819631  0.70271148     0.02100
H1183       H  0.94715910  0.72591317  0.69298941     0.15080
H1184       H  0.56425860  0.63225657  0.65992255     0.15080
C1185       C  0.57725430  0.67524364  0.72952233     0.36730
C1186       C  0.93561058  0.68460738  0.62131129     0.36630
N1187       N  0.60655189  0.67264646  0.75067756    -0.43610
N1188       N  0.90663201  0.68713219  0.59969333    -0.43610
C1189       C  0.00807124  0.70557677  0.79251922    -0.00030
C1190       C  0.97905905  0.67189256  0.79599345    -0.11900
C1191       C  0.97973984  0.64443660  0.83040961     0.02210
C1192       C  0.00812646  0.65181564  0.86367016    -0.00110
C1193       C  0.53764903  0.68489254  0.86020680    -0.11840
C1194       C  0.03849609  0.71116983  0.82460503     0.02100
H1195       H  0.95683979  0.66588900  0.77070271     0.15080
H1196       H  0.56064512  0.68970938  0.88501176     0.15080
C1197       C  0.57291239  0.74097854  0.82044399     0.36730
C1198       C  0.95494851  0.60608213  0.82823913     0.36630
N1199       N  0.60114205  0.76420692  0.81749815    -0.43610
N1200       N  0.93647053  0.57453395  0.82575435    -0.43610
C1201       C  0.00037524  0.79652262  0.71103952    -0.00030
C1202       C  0.96232909  0.81595173  0.70338839    -0.11900
C1203       C  0.95629040  0.83982829  0.66687552     0.02210
C1204       C  0.98969897  0.84634359  0.63774452    -0.00110
C1205       C  0.52753038  0.82580365  0.64510143    -0.11840
C1206       C  0.53287058  0.80054159  0.68083305     0.02100
H1207       H  0.93691420  0.81199738  0.72607383     0.15080
H1208       H  0.55334770  0.82958374  0.62290865     0.15080
C1209       C  0.57258674  0.78067905  0.68645036     0.36730
C1210       C  0.91514273  0.85616292  0.66079888     0.36630
N1211       N  0.60468664  0.76517427  0.69062288    -0.43610
N1212       N  0.88134488  0.86767153  0.65667675    -0.43610
C1213       C  0.99143427  0.84883887  0.86481360    -0.00030
C1214       C  0.52459315  0.85664504  0.83655033    -0.11900
C1215       C  0.52898059  0.83281528  0.79969189     0.02210
C1216       C  0.00088263  0.79896260  0.79122638    -0.00110
C1217       C  0.96741459  0.79122976  0.81941941    -0.11840
C1218       C  0.96234125  0.81598343  0.85587576     0.02100
H1219       H  0.54689809  0.88205122  0.84293517     0.15080
H1220       H  0.94500405  0.76605162  0.81270317     0.15080
C1221       C  0.92790751  0.80608976  0.88412760     0.36730
C1222       C  0.56299395  0.84377262  0.77139776     0.36630
N1223       N  0.90022949  0.79814086  0.90672305    -0.43610
N1224       N  0.59016828  0.85313858  0.74876658    -0.43610
loop_ 
_geom_bond_atom_site_label_1 
_geom_bond_atom_site_label_2 
_geom_bond_distance 
_geom_bond_site_symmetry_2 
_ccdc_geom_bond_type 
C1           N19   1.355       .  A
C1           C97   1.494       .  S
C1          C344   1.466       .  S
N2           N19   1.324       .  A
N2          N330   1.317       .  A
N2         Co192   2.090       .  S
C3           N28   1.338       .  A
C3           C41   1.463       .  S
C3           H48   1.079       .  S
H4           C45   1.081       .  S
C5           N29   1.338       .  A
C5            C9   1.462       .  S
C5           H34   1.081       .  S
Co6          N24   2.078       .  S
Co6          N14   2.090       .  S
Co6         N199   2.087       .  S
Co6         N175   2.081       .  S
Co6        Cl815   2.449       .  S
N7           C45   1.341       .  A
N7          N626   1.321   1_455  A
N7           Co8   2.080       .  S
Co8          N11   2.091       .  S
Co8         N181   2.084       .  S
Co8         N168   2.092       .  S
Co8        Cl203   2.458   1_455  S
C9          N353   1.353       .  A
C9           C73   1.489       .  S
N10          N40   1.323       .  A
N10         N629   1.320   1_455  A
N10        Co196   2.086       .  S
N11          N47   1.326       .  A
N11         N335   1.319   1_545  A
N12         C653   1.349       .  A
N12          N22   1.324       .  A
H13          C38   1.077       .  S
N14          N35   1.325       .  A
N14         N619   1.321       .  A
N15          N20   1.326       .  A
N15         N339   1.319   1_545  A
N15        Co161   2.092       .  S
C16          N20   1.353   1_565  A
C16         C350   1.463       .  S
C16         C367   1.490       .  S
N17          C32   1.343       .  A
N17         N622   1.320       .  A
N17        Co192   2.084       .  S
C18          N46   1.343       .  A
C18          C21   1.463       .  S
C18          H52   1.081       .  S
C21         N348   1.350   1_545  A
C21         C391   1.482       .  S
N22         N640   1.319       .  A
N22        Co159   2.081       .  S
N23          C49   1.340       .  A
N23         N637   1.318       .  A
N23         Co39   2.086       .  S
N24          C38   1.339       .  A
N24         N308   1.317   1_545  A
N25          N53   1.323       .  A
N25         N635   1.318   1_455  A
N25         Co43   2.084       .  S
H26          C49   1.078       .  S
H27          C44   1.081       .  S
N28         N634   1.319   1_455  A
N28        Co161   2.084       .  S
N29         N317   1.319       .  A
N29        Co196   2.080       .  S
N30          N42   1.323       .  A
N30         N352   1.320       .  A
N30         Co39   2.086       .  S
C31          N35   1.350       .  A
C31         C121   1.475       .  S
C31         C657   1.456       .  S
C32          C51   1.462       .  S
C32          H36   1.081       .  S
N33          C44   1.341       .  A
N33         N321   1.319       .  A
N33         Co43   2.087       .  S
C37          N53   1.352   1_655  A
C37         C661   1.467       .  S
C37         C745   1.491       .  S
C38         C307   1.466       .  S
Co39        N155   2.090   1_554  S
Co39        N170   2.084   1_554  S
Co39       Cl968   2.456       .  S
N40         C663   1.349   1_455  A
C41         N624   1.349   1_455  A
C41         C721   1.484       .  S
N42         C327   1.350       .  A
Co43        N163   2.086   1_554  S
Co43        N182   2.080   1_554  S
Co43       Cl356   2.447   1_455  S
C44         C322   1.463       .  S
C45         C643   1.456       .  S
N46         N336   1.320   1_545  A
N46        Co159   2.087       .  S
N47         C315   1.353   1_545  A
C49         C649   1.467       .  S
Cl50       Co771   2.449       .  S
Cl50       Co161   2.458   1_655  S
Cl50       Co957   2.456   1_545  S
Cl50       Co349   2.447   1_645  S
C51         N652   1.349       .  A
C51         C142   1.479       .  S
C54          C55   1.369       .  D
C54         C130   1.492       .  S
C54         C145   1.497       .  S
C55         C106   1.496       .  S
C55         C118   1.497       .  S
C56          C57   1.366       .  D
C56          C82   1.496       .  S
C56          C94   1.490       .  S
C57          C58   1.491       .  S
C57          C70   1.494       .  S
C58          C63   1.410       .  A
C58         C365   1.400       .  A
C59          H64   1.085       .  S
C59          C60   1.399       .  A
C59         C364   1.400   1_545  A
C60         C367   1.415   1_545  A
C60          C67   1.439       .  S
C61         C322   1.490       .  S
C61          C62   1.408       .  A
C61         C366   1.415       .  A
C62          H65   1.084       .  S
C62          C63   1.403       .  A
C63          C66   1.442       .  S
C66          N68   1.157       .  T
C67          N69   1.156       .  T
C70          C75   1.409       .  A
C70         C377   1.404       .  A
C71          H76   1.084       .  S
C71          C72   1.404       .  A
C71         C376   1.404   1_545  A
C72         C379   1.416   1_545  A
C72          C79   1.443       .  S
C73          C74   1.405       .  A
C73         C378   1.416       .  A
C74          H77   1.083       .  S
C74          C75   1.398       .  A
C75          C78   1.441       .  S
C78          N80   1.156       .  T
C79          N81   1.157       .  T
C82          C87   1.412       .  A
C82         C389   1.407       .  A
C83          H88   1.084       .  S
C83          C84   1.404       .  A
C83         C388   1.407   1_545  A
C84         C391   1.412       .  A
C84          C91   1.442       .  S
C85         C327   1.482       .  S
C85          C86   1.400       .  A
C85         C390   1.412       .  A
C86          H89   1.082       .  S
C86          C87   1.397       .  A
C87          C90   1.442       .  S
C90          N92   1.157       .  T
C91          N93   1.157       .  T
C94          C99   1.409       .  A
C94         C401   1.399       .  A
C95         H100   1.085       .  S
C95          C96   1.399       .  A
C95         C400   1.399   1_545  A
C96         C403   1.420       .  A
C96         C103   1.441       .  S
C97          C98   1.408       .  A
C97         C402   1.420       .  A
C98         H101   1.084       .  S
C98          C99   1.400       .  A
C99         C102   1.442       .  S
C102        N104   1.157       .  T
C103        N105   1.158       .  T
C106        C107   1.406       .  A
C106        C723   1.410       .  A
C107        H112   1.084       .  S
C107        C108   1.403       .  A
C108        C109   1.414       .  A
C108        C115   1.443       .  S
C109        C653   1.484       .  S
C109        C722   1.401       .  A
C110        H113   1.077       .  S
C110        C111   1.395       .  A
C110        C721   1.401       .  A
C111        C718   1.410       .  A
C111        C114   1.444       .  S
C114        N116   1.157       .  T
C115        N117   1.157       .  T
C118        C119   1.406       .  A
C118        C123   1.415       .  A
C119        H124   1.085       .  S
C119        C120   1.397       .  A
C120        C121   1.407       .  A
C120        C127   1.443       .  S
C121        C734   1.402       .  A
C122        H125   1.085       .  S
C122        C733   1.402       .  A
C122        C735   1.402       .  A
C123        C734   1.402       .  A
C123        C738   1.442       .  S
C126        C735   1.442       .  S
C126        N128   1.157       .  T
C127        N129   1.157       .  T
C130        C131   1.399       .  A
C130        C747   1.410       .  A
C131        H136   1.085       .  S
C131        C132   1.399       .  A
C132        C133   1.417       .  A
C132        C139   1.439       .  S
C133        C649   1.491       .  S
C133        C746   1.409       .  A
C134        H137   1.084       .  S
C134        C135   1.400       .  A
C134        C745   1.409   1_455  A
C135        C742   1.410       .  A
C135        C138   1.443       .  S
C138        N140   1.157       .  T
C139        N141   1.157       .  T
C142        C147   1.413       .  A
C142        C755   1.400       .  A
C143        H148   1.085       .  S
C143        C144   1.396       .  A
C143        C754   1.400   1_455  A
C144        C757   1.413       .  A
C144        C151   1.440       .  S
C145        C146   1.406       .  A
C145        C756   1.413       .  A
C146        H149   1.084       .  S
C146        C147   1.405       .  A
C147        C150   1.442       .  S
C150        N152   1.157       .  T
C151        N153   1.156       .  T
C154        N172   1.355       .  A
C154        C497   1.466       .  S
C154        C250   1.494       .  S
N155        N172   1.324       .  A
N155        N483   1.317       .  A
C156        N181   1.338       .  A
C156        C194   1.463       .  S
C156        H201   1.079       .  S
H157        C198   1.081       .  S
C158        N182   1.338       .  A
C158        C162   1.462       .  S
C158        H187   1.081       .  S
Co159       N177   2.078   1_554  S
Co159       N167   2.090   1_554  S
Co159      Cl662   2.449       .  S
N160        C198   1.341       .  A
N160        N779   1.321   1_455  A
N160       Co161   2.080   1_556  S
Co161       N164   2.091   1_554  S
C162        N506   1.353       .  A
C162        C226   1.489       .  S
N163        N782   1.320   1_455  A
N163        N193   1.323       .  A
N164        N488   1.319   1_545  A
N164        N200   1.326       .  A
N165        C806   1.349       .  A
N165        N175   1.324       .  A
H166        C191   1.077       .  S
N167        N772   1.321       .  A
N167        N188   1.325       .  A
N168        N492   1.319   1_545  A
N168        N173   1.326       .  A
C169        N173   1.353   1_565  A
C169        C503   1.463       .  S
C169        C520   1.490       .  S
N170        C185   1.343       .  A
N170        N775   1.320       .  A
C171        N199   1.343       .  A
C171        C174   1.463       .  S
C171        H205   1.081       .  S
C174        N501   1.350   1_545  A
C174        C544   1.482       .  S
N175        N793   1.319       .  A
N176        C202   1.340       .  A
N176        N790   1.318       .  A
N176       Co192   2.086       .  S
N177        C191   1.339       .  A
N177        N461   1.317   1_545  A
N178        N788   1.318   1_455  A
N178        N206   1.323       .  A
N178       Co196   2.084       .  S
H179        C202   1.078       .  S
H180        C197   1.081       .  S
N181        N787   1.319   1_455  A
N182        N470   1.319       .  A
N183        N195   1.323       .  A
N183        N505   1.320       .  A
N183       Co192   2.086       .  S
C184        N188   1.350       .  A
C184        C810   1.456       .  S
C184        C274   1.475       .  S
C185        C204   1.462       .  S
C185        H189   1.081       .  S
N186        C197   1.341       .  A
N186        N474   1.319       .  A
N186       Co196   2.087       .  S
C190        N206   1.352   1_655  A
C190        C814   1.467       .  S
C190        C898   1.491       .  S
C191        C460   1.466       .  S
Co192     Cl1121   2.456       .  S
N193        C816   1.349   1_455  A
C194        N777   1.349   1_455  A
C194        C874   1.484       .  S
N195        C480   1.350       .  A
Co196      Cl509   2.447   1_455  S
C197        C475   1.463       .  S
C198        C796   1.456       .  S
N199        N489   1.320   1_545  A
N200        C468   1.353   1_545  A
C202        C802   1.467       .  S
Cl203      Co618   2.449       .  S
Cl203     Co1110   2.456   1_545  S
Cl203      Co502   2.447   1_645  S
C204        N805   1.349       .  A
C204        C295   1.479       .  S
C207        C208   1.369       .  D
C207        C283   1.492       .  S
C207        C298   1.497       .  S
C208        C259   1.496       .  S
C208        C271   1.497       .  S
C209        C210   1.366       .  D
C209        C235   1.496       .  S
C209        C247   1.490       .  S
C210        C211   1.491       .  S
C210        C223   1.494       .  S
C211        C518   1.400       .  A
C211        C216   1.410       .  A
C212        H217   1.085       .  S
C212        C517   1.400   1_545  A
C212        C213   1.399       .  A
C213        C520   1.415   1_545  A
C213        C220   1.439       .  S
C214        C475   1.490       .  S
C214        C519   1.415       .  A
C214        C215   1.408       .  A
C215        H218   1.084       .  S
C215        C216   1.403       .  A
C216        C219   1.442       .  S
C219        N221   1.157       .  T
C220        N222   1.156       .  T
C223        C530   1.404       .  A
C223        C228   1.409       .  A
C224        H229   1.084       .  S
C224        C529   1.404   1_545  A
C224        C225   1.404       .  A
C225        C532   1.416   1_545  A
C225        C232   1.443       .  S
C226        C531   1.416       .  A
C226        C227   1.405       .  A
C227        H230   1.083       .  S
C227        C228   1.398       .  A
C228        C231   1.441       .  S
C231        N233   1.156       .  T
C232        N234   1.157       .  T
C235        C542   1.407       .  A
C235        C240   1.412       .  A
C236        H241   1.084       .  S
C236        C541   1.407   1_545  A
C236        C237   1.404       .  A
C237        C544   1.412       .  A
C237        C244   1.442       .  S
C238        C480   1.482       .  S
C238        C543   1.412       .  A
C238        C239   1.400       .  A
C239        H242   1.082       .  S
C239        C240   1.397       .  A
C240        C243   1.442       .  S
C243        N245   1.157       .  T
C244        N246   1.157       .  T
C247        C554   1.399       .  A
C247        C252   1.409       .  A
C248        H253   1.085       .  S
C248        C553   1.399   1_545  A
C248        C249   1.399       .  A
C249        C556   1.420       .  A
C249        C256   1.441       .  S
C250        C555   1.420       .  A
C250        C251   1.408       .  A
C251        H254   1.084       .  S
C251        C252   1.400       .  A
C252        C255   1.442       .  S
C255        N257   1.157       .  T
C256        N258   1.158       .  T
C259        C260   1.406       .  A
C259        C876   1.410       .  A
C260        H265   1.084       .  S
C260        C261   1.403       .  A
C261        C262   1.414       .  A
C261        C268   1.443       .  S
C262        C806   1.484       .  S
C262        C875   1.401       .  A
C263        H266   1.077       .  S
C263        C874   1.401       .  A
C263        C264   1.395       .  A
C264        C871   1.410       .  A
C264        C267   1.444       .  S
C267        N269   1.157       .  T
C268        N270   1.157       .  T
C271        C272   1.406       .  A
C271        C276   1.415       .  A
C272        H277   1.085       .  S
C272        C273   1.397       .  A
C273        C274   1.407       .  A
C273        C280   1.443       .  S
C274        C887   1.402       .  A
C275        H278   1.085       .  S
C275        C886   1.402       .  A
C275        C888   1.402       .  A
C276        C887   1.402       .  A
C276        C891   1.442       .  S
C279        C888   1.442       .  S
C279        N281   1.157       .  T
C280        N282   1.157       .  T
C283        C284   1.399       .  A
C283        C900   1.410       .  A
C284        H289   1.085       .  S
C284        C285   1.399       .  A
C285        C286   1.417       .  A
C285        C292   1.439       .  S
C286        C802   1.491       .  S
C286        C899   1.409       .  A
C287        H290   1.084       .  S
C287        C898   1.409   1_455  A
C287        C288   1.400       .  A
C288        C895   1.410       .  A
C288        C291   1.443       .  S
C291        N293   1.157       .  T
C292        N294   1.157       .  T
C295        C908   1.400       .  A
C295        C300   1.413       .  A
C296        H301   1.085       .  S
C296        C907   1.400   1_455  A
C296        C297   1.396       .  A
C297        C910   1.413       .  A
C297        C304   1.440       .  S
C298        C909   1.413       .  A
C298        C299   1.406       .  A
C299        H302   1.084       .  S
C299        C300   1.405       .  A
C300        C303   1.442       .  S
C303        N305   1.157       .  T
C304        N306   1.156       .  T
C307        N325   1.355   1_545  A
C307        C403   1.494       .  S
N308        N325   1.324       .  A
N308       Co498   2.090       .  S
C309        N334   1.338       .  A
C309        C347   1.463       .  S
C309        H354   1.079       .  S
H310        C351   1.081       .  S
C311        N335   1.338       .  A
C311        C315   1.462       .  S
C311        H340   1.081       .  S
Co312       N330   2.078       .  S
Co312       N320   2.090       .  S
Co312       N505   2.087       .  S
Co312       N481   2.081       .  S
Co312     Cl1121   2.449       .  S
N313        C351   1.341       .  A
N313        N932   1.321   1_455  A
N313       Co314   2.080       .  S
Co314       N317   2.091       .  S
Co314       N487   2.084       .  S
Co314       N474   2.092       .  S
Co314      Cl509   2.458   1_455  S
C315        C379   1.489       .  S
N316        N935   1.320   1_455  A
N316        N346   1.323       .  A
N316       Co502   2.086       .  S
N317        N353   1.326       .  A
N318        C959   1.349       .  A
N318        N328   1.324       .  A
H319        C344   1.077       .  S
N320        N925   1.321       .  A
N320        N341   1.325       .  A
N321        N326   1.326       .  A
N321       Co467   2.092       .  S
C322        N326   1.353       .  A
N323        C338   1.343       .  A
N323        N928   1.320       .  A
N323       Co498   2.084       .  S
C324        N352   1.343       .  A
C324        C327   1.463       .  S
C324        H358   1.081       .  S
N328        N946   1.319       .  A
N328       Co465   2.081       .  S
N329        C355   1.340       .  A
N329        N943   1.318       .  A
N329       Co345   2.086       .  S
N330        C344   1.339       .  A
N331        N941   1.318   1_455  A
N331        N359   1.323       .  A
N331       Co349   2.084       .  S
H332        C355   1.078       .  S
H333        C350   1.081       .  S
N334        N940   1.319   1_455  A
N334       Co467   2.084       .  S
N335       Co502   2.080       .  S
N336        N348   1.323       .  A
N336       Co345   2.086       .  S
C337        N341   1.350       .  A
C337        C963   1.456       .  S
C337        C427   1.475       .  S
C338        C357   1.462       .  S
C338        H342   1.081       .  S
N339        C350   1.341       .  A
N339       Co349   2.087       .  S
C343        N359   1.352   1_655  A
C343        C967   1.467       .  S
C343       C1051   1.491       .  S
Co345       N461   2.090   1_554  S
Co345       N476   2.084   1_554  S
Co345      Cl662   2.456   1_565  S
N346        C969   1.349   1_455  A
C347        N930   1.349   1_455  A
C347       C1027   1.484       .  S
Co349       N469   2.086   1_554  S
Co349       N488   2.080   1_554  S
C351        C949   1.456       .  S
N352       Co465   2.087       .  S
C355        C955   1.467       .  S
Cl356     Co1077   2.449       .  S
Cl356      Co467   2.458   1_655  S
Cl356      Co651   2.456       .  S
C357        N958   1.349       .  A
C357        C448   1.479       .  S
C360        C361   1.369       .  D
C360        C436   1.492       .  S
C360        C451   1.497       .  S
C361        C412   1.496       .  S
C361        C424   1.497       .  S
C362        C363   1.366       .  D
C362        C388   1.496       .  S
C362        C400   1.490       .  S
C363        C364   1.491       .  S
C363        C376   1.494       .  S
C364        C369   1.410       .  A
C365        H370   1.085       .  S
C365        C366   1.399       .  A
C366        C373   1.439       .  S
C367        C368   1.408       .  A
C368        H371   1.084       .  S
C368        C369   1.403       .  A
C369        C372   1.442       .  S
C372        N374   1.157       .  T
C373        N375   1.156       .  T
C376        C381   1.409       .  A
C377        H382   1.084       .  S
C377        C378   1.404       .  A
C378        C385   1.443       .  S
C379        C380   1.405       .  A
C380        H383   1.083       .  S
C380        C381   1.398       .  A
C381        C384   1.441       .  S
C384        N386   1.156       .  T
C385        N387   1.157       .  T
C388        C393   1.412       .  A
C389        H394   1.084       .  S
C389        C390   1.404       .  A
C390        C397   1.442       .  S
C391        C392   1.400   1_545  A
C392        H395   1.082       .  S
C392        C393   1.397       .  A
C393        C396   1.442       .  S
C396        N398   1.157       .  T
C397        N399   1.157       .  T
C400        C405   1.409       .  A
C401        H406   1.085       .  S
C401        C402   1.399       .  A
C402        C409   1.441       .  S
C403        C404   1.408   1_545  A
C404        H407   1.084       .  S
C404        C405   1.400       .  A
C405        C408   1.442       .  S
C408        N410   1.157       .  T
C409        N411   1.158       .  T
C412        C413   1.406       .  A
C412       C1029   1.410       .  A
C413        H418   1.084       .  S
C413        C414   1.403       .  A
C414        C415   1.414       .  A
C414        C421   1.443       .  S
C415        C959   1.484       .  S
C415       C1028   1.401       .  A
C416        H419   1.077       .  S
C416       C1027   1.401       .  A
C416        C417   1.395       .  A
C417       C1024   1.410       .  A
C417        C420   1.444       .  S
C420        N422   1.157       .  T
C421        N423   1.157       .  T
C424        C425   1.406       .  A
C424        C429   1.415       .  A
C425        H430   1.085       .  S
C425        C426   1.397       .  A
C426        C427   1.407       .  A
C426        C433   1.443       .  S
C427       C1040   1.402       .  A
C428        H431   1.085       .  S
C428       C1039   1.402       .  A
C428       C1041   1.402       .  A
C429       C1040   1.402       .  A
C429       C1044   1.442       .  S
C432       C1041   1.442       .  S
C432        N434   1.157       .  T
C433        N435   1.157       .  T
C436        C437   1.399       .  A
C436       C1053   1.410       .  A
C437        H442   1.085       .  S
C437        C438   1.399       .  A
C438        C439   1.417       .  A
C438        C445   1.439       .  S
C439        C955   1.491       .  S
C439       C1052   1.409       .  A
C440        H443   1.084       .  S
C440       C1051   1.409   1_455  A
C440        C441   1.400       .  A
C441       C1048   1.410       .  A
C441        C444   1.443       .  S
C444        N446   1.157       .  T
C445        N447   1.157       .  T
C448       C1061   1.400       .  A
C448        C453   1.413       .  A
C449        H454   1.085       .  S
C449       C1060   1.400   1_455  A
C449        C450   1.396       .  A
C450       C1063   1.413       .  A
C450        C457   1.440       .  S
C451       C1062   1.413       .  A
C451        C452   1.406       .  A
C452        H455   1.084       .  S
C452        C453   1.405       .  A
C453        C456   1.442       .  S
C456        N458   1.157       .  T
C457        N459   1.156       .  T
C460        N478   1.355   1_545  A
C460        C556   1.494       .  S
N461        N478   1.324       .  A
C462        N487   1.338       .  A
C462        C500   1.463       .  S
C462        H507   1.079       .  S
H463        C504   1.081       .  S
C464        N488   1.338       .  A
C464        C468   1.462       .  S
C464        H493   1.081       .  S
Co465       N483   2.078   1_554  S
Co465       N473   2.090   1_554  S
Co465      Cl968   2.449       .  S
N466        C504   1.341       .  A
N466       N1085   1.321   1_455  A
N466       Co467   2.080   1_556  S
Co467       N470   2.091   1_554  S
C468        C532   1.489       .  S
N469       N1088   1.320   1_455  A
N469        N499   1.323       .  A
N470        N506   1.326       .  A
N471       C1112   1.349       .  A
N471        N481   1.324       .  A
H472        C497   1.077       .  S
N473       N1078   1.321       .  A
N473        N494   1.325       .  A
N474        N479   1.326       .  A
C475        N479   1.353       .  A
N476        C491   1.343       .  A
N476       N1081   1.320       .  A
C477        N505   1.343       .  A
C477        C480   1.463       .  S
C477        H511   1.081       .  S
N481       N1099   1.319       .  A
N482        C508   1.340       .  A
N482       N1096   1.318       .  A
N482       Co498   2.086       .  S
N483        C497   1.339       .  A
N484       N1094   1.318   1_455  A
N484        N512   1.323       .  A
N484       Co502   2.084       .  S
H485        C508   1.078       .  S
H486        C503   1.081       .  S
N487       N1093   1.319   1_455  A
N489        N501   1.323       .  A
N489       Co498   2.086       .  S
C490        N494   1.350       .  A
C490       C1116   1.456       .  S
C490        C580   1.475       .  S
C491        C510   1.462       .  S
C491        H495   1.081       .  S
N492        C503   1.341       .  A
N492       Co502   2.087       .  S
C496        N512   1.352   1_655  A
C496       C1120   1.467       .  S
C496       C1204   1.491       .  S
Co498      Cl815   2.456   1_565  S
N499       C1122   1.349   1_455  A
C500       N1083   1.349   1_455  A
C500       C1180   1.484       .  S
C504       C1102   1.456       .  S
C508       C1108   1.467       .  S
Cl509      Co924   2.449       .  S
Cl509      Co804   2.456       .  S
C510       N1111   1.349       .  A
C510        C601   1.479       .  S
C513        C514   1.369       .  D
C513        C589   1.492       .  S
C513        C604   1.497       .  S
C514        C565   1.496       .  S
C514        C577   1.497       .  S
C515        C516   1.366       .  D
C515        C541   1.496       .  S
C515        C553   1.490       .  S
C516        C517   1.491       .  S
C516        C529   1.494       .  S
C517        C522   1.410       .  A
C518        H523   1.085       .  S
C518        C519   1.399       .  A
C519        C526   1.439       .  S
C520        C521   1.408       .  A
C521        H524   1.084       .  S
C521        C522   1.403       .  A
C522        C525   1.442       .  S
C525        N527   1.157       .  T
C526        N528   1.156       .  T
C529        C534   1.409       .  A
C530        H535   1.084       .  S
C530        C531   1.404       .  A
C531        C538   1.443       .  S
C532        C533   1.405       .  A
C533        H536   1.083       .  S
C533        C534   1.398       .  A
C534        C537   1.441       .  S
C537        N539   1.156       .  T
C538        N540   1.157       .  T
C541        C546   1.412       .  A
C542        H547   1.084       .  S
C542        C543   1.404       .  A
C543        C550   1.442       .  S
C544        C545   1.400   1_545  A
C545        H548   1.082       .  S
C545        C546   1.397       .  A
C546        C549   1.442       .  S
C549        N551   1.157       .  T
C550        N552   1.157       .  T
C553        C558   1.409       .  A
C554        H559   1.085       .  S
C554        C555   1.399       .  A
C555        C562   1.441       .  S
C556        C557   1.408   1_545  A
C557        H560   1.084       .  S
C557        C558   1.400       .  A
C558        C561   1.442       .  S
C561        N563   1.157       .  T
C562        N564   1.158       .  T
C565        C566   1.406       .  A
C565       C1182   1.410       .  A
C566        H571   1.084       .  S
C566        C567   1.403       .  A
C567        C568   1.414       .  A
C567        C574   1.443       .  S
C568       C1112   1.484       .  S
C568       C1181   1.401       .  A
C569        H572   1.077       .  S
C569       C1180   1.401       .  A
C569        C570   1.395       .  A
C570       C1177   1.410       .  A
C570        C573   1.444       .  S
C573        N575   1.157       .  T
C574        N576   1.157       .  T
C577        C578   1.406       .  A
C577        C582   1.415       .  A
C578        H583   1.085       .  S
C578        C579   1.397       .  A
C579        C580   1.407       .  A
C579        C586   1.443       .  S
C580       C1193   1.402       .  A
C581        H584   1.085       .  S
C581       C1192   1.402       .  A
C581       C1194   1.402       .  A
C582       C1193   1.402       .  A
C582       C1197   1.442       .  S
C585       C1194   1.442       .  S
C585        N587   1.157       .  T
C586        N588   1.157       .  T
C589        C590   1.399       .  A
C589       C1206   1.410       .  A
C590        H595   1.085       .  S
C590        C591   1.399       .  A
C591        C592   1.417       .  A
C591        C598   1.439       .  S
C592       C1108   1.491       .  S
C592       C1205   1.409       .  A
C593        H596   1.084       .  S
C593       C1204   1.409   1_455  A
C593        C594   1.400       .  A
C594       C1201   1.410       .  A
C594        C597   1.443       .  S
C597        N599   1.157       .  T
C598        N600   1.157       .  T
C601       C1214   1.400       .  A
C601        C606   1.413       .  A
C602        H607   1.085       .  S
C602       C1213   1.400   1_455  A
C602        C603   1.396       .  A
C603       C1216   1.413       .  A
C603        C610   1.440       .  S
C604       C1215   1.413       .  A
C604        C605   1.406       .  A
C605        H608   1.084       .  S
C605        C606   1.405       .  A
C606        C609   1.442       .  S
C609        N611   1.157       .  T
C610        N612   1.156       .  T
C613        N631   1.355       .  A
C613        C956   1.466       .  S
C613        C709   1.494       .  S
N614        N631   1.324       .  A
N614        N942   1.317       .  A
N614       Co804   2.090       .  S
C615        N640   1.338       .  A
C615        C653   1.463       .  S
C615        H660   1.079       .  S
H616        C657   1.081       .  S
C617        N641   1.338       .  A
C617        C621   1.462       .  S
C617        H646   1.081       .  S
Co618       N636   2.078       .  S
Co618       N626   2.090       .  S
Co618       N811   2.087       .  S
Co618       N787   2.081       .  S
N619        C657   1.341       .  A
N619       Co620   2.080       .  S
Co620       N623   2.091       .  S
Co620       N793   2.084       .  S
Co620       N780   2.092       .  S
Co620      Cl815   2.458       .  S
C621        N965   1.353       .  A
C621        C685   1.489       .  S
N622        N652   1.323       .  A
N622       Co808   2.086       .  S
N623        N947   1.319   1_545  A
N623        N659   1.326       .  A
N624        N634   1.324       .  A
H625        C650   1.077       .  S
N626        N647   1.325       .  A
N627        N951   1.319   1_545  A
N627        N632   1.326       .  A
N627       Co773   2.092       .  S
C628        N632   1.353   1_565  A
C628        C962   1.463       .  S
C628        C979   1.490       .  S
N629        C644   1.343       .  A
N629       Co804   2.084       .  S
C630        N658   1.343       .  A
C630        C633   1.463       .  S
C630        H664   1.081       .  S
C633        N960   1.350   1_545  A
C633       C1003   1.482       .  S
N634       Co771   2.081       .  S
N635        C661   1.340       .  A
N635       Co651   2.086       .  S
N636        C650   1.339       .  A
N636        N920   1.317   1_545  A
N637        N665   1.323       .  A
N637       Co655   2.084       .  S
H638        C661   1.078       .  S
H639        C656   1.081       .  S
N640       Co773   2.084       .  S
N641        N929   1.319       .  A
N641       Co808   2.080       .  S
N642        N654   1.323       .  A
N642        N964   1.320       .  A
N642       Co651   2.086       .  S
C643        N647   1.350   1_455  A
C643        C733   1.475       .  S
C644        C663   1.462       .  S
C644        H648   1.081       .  S
N645        C656   1.341       .  A
N645        N933   1.319       .  A
N645       Co655   2.087       .  S
C649        N665   1.352       .  A
C650        C919   1.466       .  S
Co651       N767   2.090   1_554  S
Co651       N782   2.084   1_554  S
N654        C939   1.350       .  A
Co655       N775   2.086   1_554  S
Co655       N794   2.080   1_554  S
Co655      Cl968   2.447       .  S
C656        C934   1.463       .  S
N658        N948   1.320   1_545  A
N658       Co771   2.087       .  S
N659        C927   1.353   1_545  A
Cl662      Co773   2.458       .  S
Cl662      Co961   2.447   1_545  S
C663        C754   1.479       .  S
C666        C667   1.369       .  D
C666        C742   1.492       .  S
C666        C757   1.497       .  S
C667        C718   1.496       .  S
C667        C730   1.497       .  S
C668        C669   1.366       .  D
C668        C694   1.496       .  S
C668        C706   1.490       .  S
C669        C670   1.491       .  S
C669        C682   1.494       .  S
C670        C977   1.400       .  A
C670        C675   1.410       .  A
C671        H676   1.085       .  S
C671        C976   1.400   1_545  A
C671        C672   1.399       .  A
C672        C979   1.415   1_545  A
C672        C679   1.439       .  S
C673        C934   1.490       .  S
C673        C978   1.415       .  A
C673        C674   1.408       .  A
C674        H677   1.084       .  S
C674        C675   1.403       .  A
C675        C678   1.442       .  S
C678        N680   1.157       .  T
C679        N681   1.156       .  T
C682        C989   1.404       .  A
C682        C687   1.409       .  A
C683        H688   1.084       .  S
C683        C988   1.404   1_545  A
C683        C684   1.404       .  A
C684        C991   1.416   1_545  A
C684        C691   1.443       .  S
C685        C990   1.416       .  A
C685        C686   1.405       .  A
C686        H689   1.083       .  S
C686        C687   1.398       .  A
C687        C690   1.441       .  S
C690        N692   1.156       .  T
C691        N693   1.157       .  T
C694       C1001   1.407       .  A
C694        C699   1.412       .  A
C695        H700   1.084       .  S
C695       C1000   1.407   1_545  A
C695        C696   1.404       .  A
C696       C1003   1.412       .  A
C696        C703   1.442       .  S
C697        C939   1.482       .  S
C697       C1002   1.412       .  A
C697        C698   1.400       .  A
C698        H701   1.082       .  S
C698        C699   1.397       .  A
C699        C702   1.442       .  S
C702        N704   1.157       .  T
C703        N705   1.157       .  T
C706       C1013   1.399       .  A
C706        C711   1.409       .  A
C707        H712   1.085       .  S
C707       C1012   1.399   1_545  A
C707        C708   1.399       .  A
C708       C1015   1.420       .  A
C708        C715   1.441       .  S
C709       C1014   1.420       .  A
C709        C710   1.408       .  A
C710        H713   1.084       .  S
C710        C711   1.400       .  A
C711        C714   1.442       .  S
C714        N716   1.157       .  T
C715        N717   1.158       .  T
C718        C719   1.406   1_455  A
C719        H724   1.084       .  S
C719        C720   1.403       .  A
C720        C721   1.414   1_655  A
C720        C727   1.443       .  S
C722        H725   1.077       .  S
C722        C723   1.395       .  A
C723        C726   1.444       .  S
C726        N728   1.157       .  T
C727        N729   1.157       .  T
C730        C731   1.406   1_455  A
C730        C735   1.415       .  A
C731        H736   1.085       .  S
C731        C732   1.397       .  A
C732        C733   1.407   1_655  A
C732        C739   1.443       .  S
C734        H737   1.085       .  S
C738        N740   1.157       .  T
C739        N741   1.157       .  T
C742        C743   1.399   1_455  A
C743        H748   1.085       .  S
C743        C744   1.399       .  A
C744        C745   1.417       .  A
C744        C751   1.439       .  S
C746        H749   1.084       .  S
C746        C747   1.400       .  A
C747        C750   1.443       .  S
C750        N752   1.157       .  T
C751        N753   1.157       .  T
C754        C759   1.413       .  A
C755        H760   1.085       .  S
C755        C756   1.396       .  A
C756        C763   1.440       .  S
C757        C758   1.406   1_455  A
C758        H761   1.084       .  S
C758        C759   1.405       .  A
C759        C762   1.442       .  S
C762        N764   1.157       .  T
C763        N765   1.156       .  T
C766        N784   1.355       .  A
C766       C1109   1.466       .  S
C766        C862   1.494       .  S
N767        N784   1.324       .  A
N767       N1095   1.317       .  A
C768        N793   1.338       .  A
C768        C806   1.463       .  S
C768        H813   1.079       .  S
H769        C810   1.081       .  S
C770        N794   1.338       .  A
C770        C774   1.462       .  S
C770        H799   1.081       .  S
Co771       N789   2.078   1_554  S
Co771       N779   2.090   1_554  S
N772        C810   1.341       .  A
N772       Co773   2.080   1_556  S
Co773       N776   2.091   1_554  S
C774       N1118   1.353       .  A
C774        C838   1.489       .  S
N775        N805   1.323       .  A
N776       N1100   1.319   1_545  A
N776        N812   1.326       .  A
N777        N787   1.324       .  A
H778        C803   1.077       .  S
N779        N800   1.325       .  A
N780       N1104   1.319   1_545  A
N780        N785   1.326       .  A
C781        N785   1.353   1_565  A
C781       C1115   1.463       .  S
C781       C1132   1.490       .  S
N782        C797   1.343       .  A
C783        N811   1.343       .  A
C783        C786   1.463       .  S
C783        H817   1.081       .  S
C786       N1113   1.350   1_545  A
C786       C1156   1.482       .  S
N788        C814   1.340       .  A
N788       Co804   2.086       .  S
N789        C803   1.339       .  A
N789       N1073   1.317   1_545  A
N790        N818   1.323       .  A
N790       Co808   2.084       .  S
H791        C814   1.078       .  S
H792        C809   1.081       .  S
N794       N1082   1.319       .  A
N795        N807   1.323       .  A
N795       N1117   1.320       .  A
N795       Co804   2.086       .  S
C796        N800   1.350   1_455  A
C796        C886   1.475       .  S
C797        C816   1.462       .  S
C797        H801   1.081       .  S
N798        C809   1.341       .  A
N798       N1086   1.319       .  A
N798       Co808   2.087       .  S
C802        N818   1.352       .  A
C803       C1072   1.466       .  S
N807       C1092   1.350       .  A
Co808     Cl1121   2.447       .  S
C809       C1087   1.463       .  S
N811       N1101   1.320   1_545  A
N812       C1080   1.353   1_545  A
Cl815     Co1114   2.447   1_545  S
C816        C907   1.479       .  S
C819        C820   1.369       .  D
C819        C895   1.492       .  S
C819        C910   1.497       .  S
C820        C871   1.496       .  S
C820        C883   1.497       .  S
C821        C822   1.366       .  D
C821        C847   1.496       .  S
C821        C859   1.490       .  S
C822        C823   1.491       .  S
C822        C835   1.494       .  S
C823       C1130   1.400       .  A
C823        C828   1.410       .  A
C824        H829   1.085       .  S
C824       C1129   1.400   1_545  A
C824        C825   1.399       .  A
C825       C1132   1.415   1_545  A
C825        C832   1.439       .  S
C826       C1087   1.490       .  S
C826       C1131   1.415       .  A
C826        C827   1.408       .  A
C827        H830   1.084       .  S
C827        C828   1.403       .  A
C828        C831   1.442       .  S
C831        N833   1.157       .  T
C832        N834   1.156       .  T
C835       C1142   1.404       .  A
C835        C840   1.409       .  A
C836        H841   1.084       .  S
C836       C1141   1.404   1_545  A
C836        C837   1.404       .  A
C837       C1144   1.416   1_545  A
C837        C844   1.443       .  S
C838       C1143   1.416       .  A
C838        C839   1.405       .  A
C839        H842   1.083       .  S
C839        C840   1.398       .  A
C840        C843   1.441       .  S
C843        N845   1.156       .  T
C844        N846   1.157       .  T
C847       C1154   1.407       .  A
C847        C852   1.412       .  A
C848        H853   1.084       .  S
C848       C1153   1.407   1_545  A
C848        C849   1.404       .  A
C849       C1156   1.412       .  A
C849        C856   1.442       .  S
C850       C1092   1.482       .  S
C850       C1155   1.412       .  A
C850        C851   1.400       .  A
C851        H854   1.082       .  S
C851        C852   1.397       .  A
C852        C855   1.442       .  S
C855        N857   1.157       .  T
C856        N858   1.157       .  T
C859       C1166   1.399       .  A
C859        C864   1.409       .  A
C860        H865   1.085       .  S
C860       C1165   1.399   1_545  A
C860        C861   1.399       .  A
C861       C1168   1.420       .  A
C861        C868   1.441       .  S
C862       C1167   1.420       .  A
C862        C863   1.408       .  A
C863        H866   1.084       .  S
C863        C864   1.400       .  A
C864        C867   1.442       .  S
C867        N869   1.157       .  T
C868        N870   1.158       .  T
C871        C872   1.406   1_455  A
C872        H877   1.084       .  S
C872        C873   1.403       .  A
C873        C874   1.414   1_655  A
C873        C880   1.443       .  S
C875        H878   1.077       .  S
C875        C876   1.395       .  A
C876        C879   1.444       .  S
C879        N881   1.157       .  T
C880        N882   1.157       .  T
C883        C884   1.406   1_455  A
C883        C888   1.415       .  A
C884        H889   1.085       .  S
C884        C885   1.397       .  A
C885        C886   1.407   1_655  A
C885        C892   1.443       .  S
C887        H890   1.085       .  S
C891        N893   1.157       .  T
C892        N894   1.157       .  T
C895        C896   1.399   1_455  A
C896        H901   1.085       .  S
C896        C897   1.399       .  A
C897        C898   1.417       .  A
C897        C904   1.439       .  S
C899        H902   1.084       .  S
C899        C900   1.400       .  A
C900        C903   1.443       .  S
C903        N905   1.157       .  T
C904        N906   1.157       .  T
C907        C912   1.413       .  A
C908        H913   1.085       .  S
C908        C909   1.396       .  A
C909        C916   1.440       .  S
C910        C911   1.406   1_455  A
C911        H914   1.084       .  S
C911        C912   1.405       .  A
C912        C915   1.442       .  S
C915        N917   1.157       .  T
C916        N918   1.156       .  T
C919        N937   1.355   1_545  A
C919       C1015   1.494       .  S
N920        N937   1.324       .  A
N920      Co1110   2.090       .  S
C921        N946   1.338       .  A
C921        C959   1.463       .  S
C921        H966   1.079       .  S
H922        C963   1.081       .  S
C923        N947   1.338       .  A
C923        C927   1.462       .  S
C923        H952   1.081       .  S
Co924       N942   2.078       .  S
Co924       N932   2.090       .  S
Co924      N1117   2.087       .  S
Co924      N1093   2.081       .  S
N925        C963   1.341       .  A
N925       Co926   2.080       .  S
Co926       N929   2.091       .  S
Co926      N1099   2.084       .  S
Co926      N1086   2.092       .  S
Co926     Cl1121   2.458       .  S
C927        C991   1.489       .  S
N928        N958   1.323       .  A
N928      Co1114   2.086       .  S
N929        N965   1.326       .  A
N930        N940   1.324       .  A
H931        C956   1.077       .  S
N932        N953   1.325       .  A
N933        N938   1.326       .  A
N933      Co1079   2.092       .  S
C934        N938   1.353       .  A
N935        C950   1.343       .  A
N935      Co1110   2.084       .  S
C936        N964   1.343       .  A
C936        C939   1.463       .  S
C936        H970   1.081       .  S
N940      Co1077   2.081       .  S
N941        C967   1.340       .  A
N941       Co957   2.086       .  S
N942        C956   1.339       .  A
N943        N971   1.323       .  A
N943       Co961   2.084       .  S
H944        C967   1.078       .  S
H945        C962   1.081       .  S
N946      Co1079   2.084       .  S
N947      Co1114   2.080       .  S
N948        N960   1.323       .  A
N948       Co957   2.086       .  S
C949        N953   1.350   1_455  A
C949       C1039   1.475       .  S
C950        C969   1.462       .  S
C950        H954   1.081       .  S
N951        C962   1.341       .  A
N951       Co961   2.087       .  S
C955        N971   1.352       .  A
Co957      N1073   2.090   1_554  S
Co957      N1088   2.084   1_554  S
Co961      N1081   2.086   1_554  S
Co961      N1100   2.080   1_554  S
N964      Co1077   2.087       .  S
Cl968     Co1079   2.458       .  S
C969       C1060   1.479       .  S
C972        C973   1.369       .  D
C972       C1048   1.492       .  S
C972       C1063   1.497       .  S
C973       C1024   1.496       .  S
C973       C1036   1.497       .  S
C974        C975   1.366       .  D
C974       C1000   1.496       .  S
C974       C1012   1.490       .  S
C975        C976   1.491       .  S
C975        C988   1.494       .  S
C976        C981   1.410       .  A
C977        H982   1.085       .  S
C977        C978   1.399       .  A
C978        C985   1.439       .  S
C979        C980   1.408       .  A
C980        H983   1.084       .  S
C980        C981   1.403       .  A
C981        C984   1.442       .  S
C984        N986   1.157       .  T
C985        N987   1.156       .  T
C988        C993   1.409       .  A
C989        H994   1.084       .  S
C989        C990   1.404       .  A
C990        C997   1.443       .  S
C991        C992   1.405       .  A
C992        H995   1.083       .  S
C992        C993   1.398       .  A
C993        C996   1.441       .  S
C996        N998   1.156       .  T
C997        N999   1.157       .  T
C1000      C1005   1.412       .  A
C1001      H1006   1.084       .  S
C1001      C1002   1.404       .  A
C1002      C1009   1.442       .  S
C1003      C1004   1.400   1_545  A
C1004      H1007   1.082       .  S
C1004      C1005   1.397       .  A
C1005      C1008   1.442       .  S
C1008      N1010   1.157       .  T
C1009      N1011   1.157       .  T
C1012      C1017   1.409       .  A
C1013      H1018   1.085       .  S
C1013      C1014   1.399       .  A
C1014      C1021   1.441       .  S
C1015      C1016   1.408   1_545  A
C1016      H1019   1.084       .  S
C1016      C1017   1.400       .  A
C1017      C1020   1.442       .  S
C1020      N1022   1.157       .  T
C1021      N1023   1.158       .  T
C1024      C1025   1.406   1_455  A
C1025      H1030   1.084       .  S
C1025      C1026   1.403       .  A
C1026      C1027   1.414   1_655  A
C1026      C1033   1.443       .  S
C1028      H1031   1.077       .  S
C1028      C1029   1.395       .  A
C1029      C1032   1.444       .  S
C1032      N1034   1.157       .  T
C1033      N1035   1.157       .  T
C1036      C1037   1.406   1_455  A
C1036      C1041   1.415       .  A
C1037      H1042   1.085       .  S
C1037      C1038   1.397       .  A
C1038      C1039   1.407   1_655  A
C1038      C1045   1.443       .  S
C1040      H1043   1.085       .  S
C1044      N1046   1.157       .  T
C1045      N1047   1.157       .  T
C1048      C1049   1.399   1_455  A
C1049      H1054   1.085       .  S
C1049      C1050   1.399       .  A
C1050      C1051   1.417       .  A
C1050      C1057   1.439       .  S
C1052      H1055   1.084       .  S
C1052      C1053   1.400       .  A
C1053      C1056   1.443       .  S
C1056      N1058   1.157       .  T
C1057      N1059   1.157       .  T
C1060      C1065   1.413       .  A
C1061      H1066   1.085       .  S
C1061      C1062   1.396       .  A
C1062      C1069   1.440       .  S
C1063      C1064   1.406   1_455  A
C1064      H1067   1.084       .  S
C1064      C1065   1.405       .  A
C1065      C1068   1.442       .  S
C1068      N1070   1.157       .  T
C1069      N1071   1.156       .  T
C1072      N1090   1.355   1_545  A
C1072      C1168   1.494       .  S
N1073      N1090   1.324       .  A
C1074      N1099   1.338       .  A
C1074      C1112   1.463       .  S
C1074      H1119   1.079       .  S
H1075      C1116   1.081       .  S
C1076      N1100   1.338       .  A
C1076      C1080   1.462       .  S
C1076      H1105   1.081       .  S
Co1077     N1095   2.078   1_554  S
Co1077     N1085   2.090   1_554  S
N1078      C1116   1.341       .  A
N1078     Co1079   2.080   1_556  S
Co1079     N1082   2.091   1_554  S
C1080      C1144   1.489       .  S
N1081      N1111   1.323       .  A
N1082      N1118   1.326       .  A
N1083      N1093   1.324       .  A
H1084      C1109   1.077       .  S
N1085      N1106   1.325       .  A
N1086      N1091   1.326       .  A
C1087      N1091   1.353       .  A
N1088      C1103   1.343       .  A
C1089      N1117   1.343       .  A
C1089      C1092   1.463       .  S
C1089      H1123   1.081       .  S
N1094      C1120   1.340       .  A
N1094     Co1110   2.086       .  S
N1095      C1109   1.339       .  A
N1096      N1124   1.323       .  A
N1096     Co1114   2.084       .  S
H1097      C1120   1.078       .  S
H1098      C1115   1.081       .  S
N1101      N1113   1.323       .  A
N1101     Co1110   2.086       .  S
C1102      N1106   1.350   1_455  A
C1102      C1192   1.475       .  S
C1103      C1122   1.462       .  S
C1103      H1107   1.081       .  S
N1104      C1115   1.341       .  A
N1104     Co1114   2.087       .  S
C1108      N1124   1.352       .  A
C1122      C1213   1.479       .  S
C1125      C1126   1.369       .  D
C1125      C1201   1.492       .  S
C1125      C1216   1.497       .  S
C1126      C1177   1.496       .  S
C1126      C1189   1.497       .  S
C1127      C1128   1.366       .  D
C1127      C1153   1.496       .  S
C1127      C1165   1.490       .  S
C1128      C1129   1.491       .  S
C1128      C1141   1.494       .  S
C1129      C1134   1.410       .  A
C1130      H1135   1.085       .  S
C1130      C1131   1.399       .  A
C1131      C1138   1.439       .  S
C1132      C1133   1.408       .  A
C1133      H1136   1.084       .  S
C1133      C1134   1.403       .  A
C1134      C1137   1.442       .  S
C1137      N1139   1.157       .  T
C1138      N1140   1.156       .  T
C1141      C1146   1.409       .  A
C1142      H1147   1.084       .  S
C1142      C1143   1.404       .  A
C1143      C1150   1.443       .  S
C1144      C1145   1.405       .  A
C1145      H1148   1.083       .  S
C1145      C1146   1.398       .  A
C1146      C1149   1.441       .  S
C1149      N1151   1.156       .  T
C1150      N1152   1.157       .  T
C1153      C1158   1.412       .  A
C1154      H1159   1.084       .  S
C1154      C1155   1.404       .  A
C1155      C1162   1.442       .  S
C1156      C1157   1.400   1_545  A
C1157      H1160   1.082       .  S
C1157      C1158   1.397       .  A
C1158      C1161   1.442       .  S
C1161      N1163   1.157       .  T
C1162      N1164   1.157       .  T
C1165      C1170   1.409       .  A
C1166      H1171   1.085       .  S
C1166      C1167   1.399       .  A
C1167      C1174   1.441       .  S
C1168      C1169   1.408   1_545  A
C1169      H1172   1.084       .  S
C1169      C1170   1.400       .  A
C1170      C1173   1.442       .  S
C1173      N1175   1.157       .  T
C1174      N1176   1.158       .  T
C1177      C1178   1.406   1_455  A
C1178      H1183   1.084       .  S
C1178      C1179   1.403       .  A
C1179      C1180   1.414   1_655  A
C1179      C1186   1.443       .  S
C1181      H1184   1.077       .  S
C1181      C1182   1.395       .  A
C1182      C1185   1.444       .  S
C1185      N1187   1.157       .  T
C1186      N1188   1.157       .  T
C1189      C1190   1.406   1_455  A
C1189      C1194   1.415       .  A
C1190      H1195   1.085       .  S
C1190      C1191   1.397       .  A
C1191      C1192   1.407   1_655  A
C1191      C1198   1.443       .  S
C1193      H1196   1.085       .  S
C1197      N1199   1.157       .  T
C1198      N1200   1.157       .  T
C1201      C1202   1.399   1_455  A
C1202      H1207   1.085       .  S
C1202      C1203   1.399       .  A
C1203      C1204   1.417       .  A
C1203      C1210   1.439       .  S
C1205      H1208   1.084       .  S
C1205      C1206   1.400       .  A
C1206      C1209   1.443       .  S
C1209      N1211   1.157       .  T
C1210      N1212   1.157       .  T
C1213      C1218   1.413       .  A
C1214      H1219   1.085       .  S
C1214      C1215   1.396       .  A
C1215      C1222   1.440       .  S
C1216      C1217   1.406   1_455  A
C1217      H1220   1.084       .  S
C1217      C1218   1.405       .  A
C1218      C1221   1.442       .  S
C1221      N1223   1.157       .  T
C1222      N1224   1.156       .  T
