geometry optimzed in LAMMPS
_audit_creation_date              2020-11-30 
_audit_creation_method            'lammps2cif' 
_symmetry_space_group_name_H-M    'P1' 
_symmetry_Int_Tables_number       1 
_symmetry_cell_setting            triclinic 
loop_ 
_symmetry_equiv_pos_as_xyz 
  x,y,z 
_cell_length_a                    36.61801874 
_cell_length_b                    35.92052293039377 
_cell_length_c                    33.79103501377992 
_cell_angle_alpha                 90.21612258021092 
_cell_angle_beta                  91.00773892133488 
_cell_angle_gamma                 89.23267425355957 
loop_ 
_atom_site_label 
_atom_site_type_symbol 
_atom_site_fract_x 
_atom_site_fract_y 
_atom_site_fract_z 
_atom_site_charge 
N1          N  0.95284901  0.99243081  0.24560132    -0.37200
N2          N  0.00655951  0.93374738  0.25258954    -0.57800
N3          N  0.06442094  0.98931952  0.25857051    -0.37200
N4          N  0.01006436  0.04800747  0.24799303    -0.57800
C5          C  0.93255268  0.96284563  0.23449958     0.26400
C6          C  0.93424258  0.02328201  0.23391861     0.26400
C7          C  0.08469634  0.95786185  0.25440541     0.26400
C8          C  0.08650221  0.01841525  0.25132747     0.26400
C9          C  0.97628879  0.91272028  0.25412995     0.35000
C10         C  0.03513987  0.91102737  0.26141209     0.35000
C11         C  0.98063257  0.07082609  0.25096709     0.35000
C12         C  0.03967656  0.06924909  0.25487782     0.35000
C13         C  0.90079327  0.97507734  0.21542718    -0.22500
C14         C  0.90184117  0.01326478  0.21509469    -0.22500
C15         C  0.12048380  0.96718835  0.24638858    -0.22500
C16         C  0.12160406  0.00529781  0.24445157    -0.22500
C17         C  0.98557064  0.87646665  0.26427590    -0.23500
C18         C  0.02290505  0.87529318  0.26856743    -0.23500
C19         C  0.99152703  0.10672170  0.25987905    -0.23500
C20         C  0.02893533  0.10587424  0.26164924    -0.23500
C21         C  0.94086530  0.92523200  0.24321543    -0.18900
C22         C  0.94436552  0.06025532  0.24249489    -0.18900
C23         C  0.07622838  0.05654750  0.25196936    -0.18900
C24         C  0.07216278  0.92089979  0.25798964    -0.18900
H25         H  0.87893905  0.95825059  0.20335740     0.14000
H26         H  0.88093881  0.03161338  0.20273994     0.14000
H27         H  0.14356416  0.94852646  0.24229642     0.14000
H28         H  0.14567614  0.02140184  0.23866514     0.14000
H29         H  0.96750222  0.85306443  0.26710761     0.12300
H30         H  0.03915064  0.85065587  0.27519779     0.12300
H31         H  0.97446339  0.13124424  0.26371171     0.12300
H32         H  0.04603064  0.12972902  0.26703011     0.12300
H33         H  0.97547613  0.99198084  0.26459705     0.25600
H34         H  0.03778947  0.99078241  0.26843223     0.25600
O35         O  0.19523387  0.30807410  0.25467558    -0.81500
O36         O  0.25141616  0.18264879  0.14772940    -0.66200
O37         O  0.23046161  0.24135230  0.23837244    -1.12800
C38         C  0.32872110  0.31319945  0.19048311     1.05400
O39         O  0.30927581  0.18203102  0.16586850    -0.79400
O40         O  0.34002662  0.22470902  0.22231987    -0.67000
Ni41       Ni  0.18173823  0.25708073  0.24921239     1.34900
C42         C  0.32903952  0.23565379  0.25584297     0.84100
O43         O  0.20382043  0.17455963  0.20674144    -0.79900
O44         O  0.16503571  0.20681500  0.24549876    -0.90200
C45         C  0.28387282  0.17127613  0.14278072     0.83700
O46         O  0.16601205  0.26791781  0.19644508    -0.68400
O47         O  0.33833060  0.28376937  0.17190303    -0.87700
C48         C  0.17715976  0.25723759  0.16293460     0.84500
C49         C  0.17565417  0.17690352  0.22847793     1.06100
H50         H  0.26508803  0.26287371  0.15816931     0.37900
O51         O  0.27376443  0.24900303  0.18098113    -1.10300
O52         O  0.30028237  0.25508008  0.26035000    -0.67000
Ni53       Ni  0.26514329  0.27900104  0.22628503     1.26300
O54         O  0.20438178  0.23553313  0.15867134    -0.67200
O55         O  0.30087797  0.31547413  0.21275619    -0.79500
C56         C  0.22080613  0.31827576  0.27778665     0.83900
O57         O  0.25328152  0.30745622  0.27187722    -0.66700
Ni58       Ni  0.32233286  0.23334936  0.16963669     1.27400
Ni59       Ni  0.23921689  0.21130436  0.19305241     1.26100
H60         H  0.23906217  0.22754456  0.26128255     0.38500
O61         O  0.69290009  0.18445486  0.25854636    -0.81500
O62         O  0.82059225  0.23913760  0.15174727    -0.66200
O63         O  0.75981596  0.22080475  0.24031291    -1.22400
C64         C  0.69064414  0.32105836  0.18901531     1.05400
O65         O  0.82008838  0.30013948  0.16042615    -0.79400
O66         O  0.78292853  0.32679758  0.22348702    -0.67000
Ni67       Ni  0.74395928  0.17106772  0.25092564     1.34900
C68         C  0.76775434  0.31916461  0.25593118     0.84100
O69         O  0.82662318  0.19381392  0.21357488    -0.79900
O70         O  0.79334443  0.15250156  0.24674467    -0.90200
C71         C  0.83295098  0.27102322  0.14394374     0.83700
O72         O  0.73281710  0.15597517  0.19753097    -0.68400
O73         O  0.72092771  0.33298541  0.17638682    -0.87700
C74         C  0.74710165  0.16484706  0.16491383     0.84500
C75         C  0.82339792  0.16357117  0.23253243     1.06100
H76         H  0.74162726  0.25524905  0.15661781     0.37900
O77         O  0.75411361  0.26401831  0.18030022    -1.10300
O78         O  0.74423547  0.29351690  0.25876426    -0.67000
Ni79       Ni  0.72322160  0.25580335  0.22441135     1.26300
O80         O  0.76919803  0.19168216  0.16197868    -0.67200
O81         O  0.68710612  0.29019395  0.20657387    -0.79500
C82         C  0.67998455  0.21357875  0.27509022     0.83900
O83         O  0.69323028  0.24527783  0.26839118    -0.66700
Ni84       Ni  0.76977883  0.31378061  0.17017407     1.27400
Ni85       Ni  0.79069231  0.22884138  0.19608298     1.26100
H86         H  0.77223952  0.22973638  0.26382203     0.38500
O87         O  0.82199555  0.68772596  0.15970553    -0.81500
O88         O  0.69406637  0.74092541  0.26174581    -0.66200
O89         O  0.75397973  0.72072800  0.17431056    -1.12800
C90         C  0.81926873  0.82500338  0.22524500     1.05400
O91         O  0.69015404  0.80055651  0.24618858    -0.79400
O92         O  0.73217547  0.83320289  0.19032813    -0.67000
Ni93       Ni  0.77231412  0.67147036  0.16501545     1.34900
C94         C  0.74393997  0.82268083  0.15686668     0.84100
O95         O  0.68953294  0.69143526  0.20322504    -0.79900
O96         O  0.72390018  0.65124197  0.16822065    -0.90200
C97         C  0.67870375  0.77245181  0.26497825     0.83700
O98         O  0.78308571  0.65664027  0.21846517    -0.68400
O99         O  0.78977436  0.83410248  0.24278630    -0.87700
C100        C  0.76937607  0.66658699  0.25117709     0.84500
C101        C  0.69373173  0.66114419  0.18387174     1.06100
H102        H  0.77211015  0.75838950  0.25520157     0.37900
O103        O  0.75833239  0.76640950  0.23205418    -1.10300
O104        O  0.76356721  0.79345316  0.15262575    -0.67000
Ni105      Ni  0.78837430  0.75855427  0.18761015     1.26300
O106        O  0.74753173  0.69426743  0.25407425    -0.67200
O107        O  0.82231162  0.79648014  0.20278679    -0.79500
C108        C  0.83189211  0.71516657  0.13894027     0.83900
O109        O  0.81752754  0.74710733  0.14338598    -0.66700
Ni110      Ni  0.74065308  0.81549602  0.24327029     1.27400
Ni111      Ni  0.72365754  0.72910066  0.21836985     1.26100
H112        H  0.74036530  0.72812554  0.15079521     0.38500
O113        O  0.30067070  0.80773753  0.16163571    -0.81500
O114        O  0.26092810  0.67426694  0.26035980    -0.66200
O115        O  0.27354915  0.73736479  0.17258440    -1.12800
C116        C  0.17082154  0.79918222  0.22815035     1.05400
O117        O  0.20354659  0.66977696  0.24116675    -0.79400
O118        O  0.16534993  0.71279231  0.19161077    -0.67000
Ni119      Ni  0.31950454  0.75775731  0.16092406     1.34900
C120        C  0.17529268  0.72248561  0.15748629     0.84100
O121        O  0.30862484  0.67393112  0.20149334    -0.79900
O122        O  0.34112293  0.70889666  0.15962854    -0.90200
C123        C  0.23006308  0.65919768  0.26310634     0.83700
O124        O  0.33761458  0.76546695  0.21333567    -0.68400
O125        O  0.16483337  0.76904768  0.24675917    -0.87700
C126        C  0.32829795  0.75399185  0.24704115     0.84500
C127        C  0.33530081  0.67882342  0.17837799     1.06100
H128        H  0.23868379  0.75360037  0.25380343     0.37900
O129        O  0.23096242  0.73938080  0.23090120    -1.10300
O130        O  0.20233214  0.74356443  0.15198420    -0.67000
Ni131      Ni  0.23491647  0.77070678  0.18661352     1.26300
O132        O  0.30184671  0.73211891  0.25190872    -0.67200
O133        O  0.19581378  0.80297877  0.20261940    -0.79500
C134        C  0.27329781  0.81873686  0.14112088     0.83900
O135        O  0.24304541  0.80227353  0.14306127    -0.66700
Ni136      Ni  0.18506452  0.71967864  0.24356180     1.27400
Ni137      Ni  0.26931438  0.70580304  0.21683175     1.26100
H138        H  0.26617553  0.72326506  0.14946533     0.38500
N139        N  0.31084301  0.93763456  0.95856031    -0.37200
N140        N  0.30610418  0.99826917  0.01424598    -0.57800
N141        N  0.32447139  0.04834578  0.95185200    -0.37200
N142        N  0.33270270  0.98739849  0.89552710    -0.57800
C143        C  0.30757402  0.91845446  0.99252061     0.26400
C144        C  0.32030870  0.91292627  0.93035640     0.26400
C145        C  0.32752591  0.07142628  0.98333052     0.26400
C146        C  0.33892187  0.06579160  0.92070491     0.26400
C147        C  0.29178138  0.97145142  0.03662485     0.35000
C148        C  0.29925738  0.03060970  0.03300482     0.35000
C149        C  0.32439741  0.95682677  0.87401727     0.35000
C150        C  0.33047282  0.01634237  0.87020062     0.35000
C151        C  0.31498597  0.88099679  0.98581164    -0.22500
C152        C  0.32285344  0.87747466  0.94645361    -0.22500
C153        C  0.34454977  0.10389329  0.97217497    -0.22500
C154        C  0.35150332  0.10043539  0.93239835    -0.22500
C155        C  0.27616356  0.98659771  0.07017815    -0.23500
C156        C  0.28078410  0.02429300  0.06782438    -0.23500
C157        C  0.31878451  0.96605888  0.83457402    -0.23500
C158        C  0.32244388  0.00394086  0.83218389    -0.23500
C159        C  0.29516991  0.93331425  0.02855065    -0.18900
C160        C  0.32130855  0.92077025  0.88967939    -0.18900
C161        C  0.33483788  0.05389212  0.88119937    -0.18900
C162        C  0.31185377  0.06535646  0.02049563    -0.18900
H163        H  0.31360455  0.85832746  0.00672571     0.14000
H164        H  0.32851230  0.85155098  0.93119055     0.14000
H165        H  0.34993857  0.12813494  0.99037116     0.14000
H166        H  0.36311302  0.12153422  0.91380368     0.14000
H167        H  0.26318234  0.97198768  0.09398461     0.12300
H168        H  0.27206009  0.04460117  0.08955787     0.12300
H169        H  0.31176890  0.94759551  0.81030211     0.12300
H170        H  0.31893537  0.02052147  0.80567498     0.12300
H171        H  0.30178457  0.96466344  0.95346997     0.25600
H172        H  0.30783941  0.02524985  0.94984023     0.25600
N173        N  0.96025311  0.29066313  0.95907845    -0.37200
N174        N  0.01461142  0.29095139  0.02086747    -0.57800
N175        N  0.07158903  0.28617293  0.96002580    -0.37200
N176        N  0.01712682  0.29037003  0.89837365    -0.57800
C177        C  0.93854367  0.29525295  0.99078776     0.26400
C178        C  0.93989081  0.29859445  0.92646770     0.26400
C179        C  0.09121894  0.29587207  0.99256548     0.26400
C180        C  0.09269466  0.29234548  0.92825161     0.26400
C181        C  0.98537174  0.28228854  0.04282600     0.35000
C182        C  0.04447052  0.28329199  0.04348132     0.35000
C183        C  0.98706138  0.28470045  0.87557010     0.35000
C184        C  0.04610142  0.28006702  0.87634892     0.35000
C185        C  0.90382742  0.30615417  0.97820549    -0.22500
C186        C  0.90469464  0.30843797  0.93759683    -0.22500
C187        C  0.12511294  0.30861824  0.98135272    -0.22500
C188        C  0.12608118  0.30625673  0.94069385    -0.22500
C189        C  0.99661370  0.26981448  0.07981805    -0.23500
C190        C  0.03407184  0.27019079  0.08017952    -0.23500
C191        C  0.99696840  0.27131370  0.83868109    -0.23500
C192        C  0.03434726  0.26798962  0.83932353    -0.23500
C193        C  0.94863145  0.28683219  0.03031129    -0.18900
C194        C  0.95082249  0.29249856  0.88701039    -0.18900
C195        C  0.08302159  0.28379474  0.88862155    -0.18900
C196        C  0.08089763  0.28945129  0.03205590    -0.18900
H197        H  0.88011001  0.31103965  0.99627220     0.14000
H198        H  0.88159281  0.31513765  0.91838306     0.14000
H199        H  0.14717552  0.31783286  0.00058124     0.14000
H200        H  0.14883860  0.31363126  0.92241432     0.14000
H201        H  0.97963883  0.26107239  0.10388915     0.12300
H202        H  0.05155986  0.26149352  0.10466824     0.12300
H203        H  0.97912008  0.26435230  0.81395442     0.12300
H204        H  0.05088119  0.25796536  0.81518954     0.12300
H205        H  0.98577821  0.27783516  0.95914099     0.25600
H206        H  0.04733384  0.27144904  0.95997653     0.25600
N207        N  0.73417898  0.05541134  0.95848144    -0.37200
N208        N  0.72802400  0.99664634  0.01808133    -0.57800
N209        N  0.73101149  0.94033065  0.95555979    -0.37200
N210        N  0.73137568  0.99921776  0.89584992    -0.57800
C211        C  0.72592707  0.07585592  0.99100827     0.26400
C212        C  0.72845121  0.07735794  0.92632705     0.26400
C213        C  0.72229442  0.91922478  0.98714513     0.26400
C214        C  0.72292952  0.92057145  0.92233916     0.26400
C215        C  0.73668948  0.02621418  0.04126650     0.35000
C216        C  0.73613510  0.96579462  0.03966912     0.35000
C217        C  0.74100497  0.02946241  0.87468179     0.35000
C218        C  0.73871978  0.96896256  0.87304585     0.35000
C219        C  0.71485687  0.11130180  0.97935328    -0.22500
C220        C  0.71653030  0.11227067  0.93861106    -0.22500
C221        C  0.70835873  0.88563896  0.97384456    -0.22500
C222        C  0.70869022  0.88650817  0.93300916    -0.22500
C223        C  0.75044522  0.01405386  0.07751565    -0.23500
C224        C  0.75019282  0.97588322  0.07646624    -0.23500
C225        C  0.75463517  0.01831115  0.83846523    -0.23500
C226        C  0.75327311  0.98012897  0.83745847    -0.23500
C227        C  0.73087858  0.06408747  0.03088961    -0.18900
C228        C  0.73554605  0.06711829  0.88649196    -0.18900
C229        C  0.73059993  0.93155275  0.88295437    -0.18900
C230        C  0.72905091  0.92870216  0.02746799    -0.18900
H231        H  0.70682102  0.13427505  0.99824494     0.14000
H232        H  0.70993295  0.13609074  0.92019101     0.14000
H233        H  0.69924627  0.86271299  0.99168948     0.14000
H234        H  0.69987526  0.86433678  0.91344103     0.14000
H235        H  0.76002748  0.03090664  0.10209593     0.12300
H236        H  0.75948310  0.95766784  0.10011610     0.12300
H237        H  0.76458826  0.03586469  0.81514760     0.12300
H238        H  0.76209032  0.96262368  0.81321480     0.12300
H239        H  0.74683190  0.02934406  0.95853684     0.25600
H240        H  0.74564099  0.96492400  0.95672120     0.25600
N241        N  0.06553992  0.68256491  0.95848676    -0.37200
N242        N  0.01107996  0.68246428  0.89399817    -0.57800
N243        N  0.95518943  0.69060725  0.95231330    -0.37200
N244        N  0.00966561  0.68634868  0.01668848    -0.57800
C245        C  0.08595252  0.67218033  0.92743910     0.26400
C246        C  0.08532336  0.67481343  0.99163603     0.26400
C247        C  0.93455174  0.68442349  0.91943550     0.26400
C248        C  0.93358487  0.68588460  0.98378632     0.26400
C249        C  0.04167661  0.68894679  0.87365526     0.35000
C250        C  0.98282063  0.69310736  0.87020697     0.35000
C251        C  0.03897239  0.69404103  0.04004232     0.35000
C252        C  0.98004449  0.69776974  0.03681362     0.35000
C253        C  0.11894491  0.65710791  0.94091072    -0.22500
C254        C  0.11853698  0.65878075  0.98160177    -0.22500
C255        C  0.89934308  0.67557766  0.93011087    -0.22500
C256        C  0.89876016  0.67635837  0.97082372    -0.22500
C257        C  0.03273900  0.70326533  0.83655133    -0.23500
C258        C  0.99534811  0.70554287  0.83425659    -0.23500
C259        C  0.02786001  0.71004732  0.07530104    -0.23500
C260        C  0.99046459  0.71222170  0.07333443    -0.23500
C261        C  0.07743463  0.68072049  0.88766814    -0.18900
C262        C  0.07549212  0.68566396  0.03016437    -0.18900
C263        C  0.94361349  0.69375271  0.02344761    -0.18900
C264        C  0.94583336  0.69066049  0.88034748    -0.18900
H265        H  0.14145500  0.64721838  0.92319933     0.14000
H266        H  0.14057278  0.65028752  0.00148654     0.14000
H267        H  0.87624298  0.67014860  0.91061378     0.14000
H268        H  0.87509474  0.67161592  0.98878235     0.14000
H269        H  0.05113376  0.71148430  0.81354799     0.12300
H270        H  0.97928021  0.71567012  0.80925248     0.12300
H271        H  0.04481252  0.71945690  0.09979948     0.12300
H272        H  0.97296569  0.72349350  0.09604687     0.12300
H273        H  0.04227445  0.69941089  0.95684161     0.25600
H274        H  0.98081570  0.70263019  0.95317729     0.25600
O275        O  0.31098945  0.77562867  0.77748221    -0.81500
O276        O  0.25517076  0.70545122  0.62403569    -0.66200
O277        O  0.27627363  0.77567572  0.70480411    -1.12800
C278        C  0.17863202  0.71470438  0.76749967     1.05400
O279        O  0.19819828  0.72399610  0.62718043    -0.79400
O280        O  0.16628333  0.76583220  0.68312644    -0.67000
Ni281      Ni  0.32518157  0.78183274  0.72396028     1.34900
C282        C  0.17689814  0.79399743  0.70271190     0.84100
O283        O  0.30264008  0.76065533  0.62955848    -0.79900
O284        O  0.34227893  0.78881450  0.67131381    -0.90200
C285        C  0.22232730  0.70286324  0.61237597     0.83700
O286        O  0.34068441  0.73098788  0.72417367    -0.68400
O287        O  0.16759140  0.70576145  0.73270709    -0.87700
C288        C  0.33005946  0.70236201  0.70549360     0.84500
C289        C  0.33140094  0.77920160  0.63673250     1.06100
H290        H  0.24074412  0.69720399  0.70895769     0.37900
O291        O  0.23249826  0.72134940  0.69966331    -1.10300
O292        O  0.20566021  0.79337908  0.72433252    -0.67000
Ni293      Ni  0.24138900  0.75614343  0.74074024     1.26300
O294        O  0.30274698  0.70287896  0.68165389    -0.67200
O295        O  0.20661540  0.73456764  0.77490062    -0.79500
C296        C  0.28599250  0.79583291  0.79186847     0.83900
O297        O  0.25326813  0.79136630  0.78059845    -0.66700
Ni298      Ni  0.18376548  0.71543905  0.68027569     1.27400
Ni299      Ni  0.26755086  0.74038081  0.66388161     1.26100
H300        H  0.26775048  0.79970079  0.69543523     0.38500
N301        N  0.95534846  0.99621293  0.69339159    -0.37200
N302        N  0.01208615  0.05092400  0.69582990    -0.57800
N303        N  0.06752810  0.99003761  0.70421252    -0.37200
N304        N  0.01019179  0.93530773  0.70101087    -0.57800
C305        C  0.93487617  0.02751732  0.69921713     0.26400
C306        C  0.93397465  0.96690554  0.70175840     0.26400
C307        C  0.08972694  0.01940726  0.69857375     0.26400
C308        C  0.08845647  0.95850544  0.70179168     0.26400
C309        C  0.98321605  0.07477995  0.69146132     0.35000
C310        C  0.04265241  0.07166332  0.69523900     0.35000
C311        C  0.97973363  0.91464988  0.69731099     0.35000
C312        C  0.03887168  0.91111574  0.70192350     0.35000
C313        C  0.90040478  0.01779751  0.71164755    -0.22500
C314        C  0.89980927  0.97968869  0.71314539    -0.22500
C315        C  0.12519756  0.00631098  0.69344932    -0.22500
C316        C  0.12439601  0.96818590  0.69557376    -0.22500
C317        C  0.99552958  0.11081681  0.68784423    -0.23500
C318        C  0.03285795  0.10900276  0.69119913    -0.23500
C319        C  0.98912503  0.87716418  0.69567642    -0.23500
C320        C  0.02634348  0.87489200  0.69951655    -0.23500
C321        C  0.94588583  0.06475583  0.69306759    -0.18900
C322        C  0.94345074  0.92873265  0.69778558    -0.18900
C323        C  0.07628805  0.92102976  0.70293892    -0.18900
C324        C  0.07935119  0.05777825  0.69674850    -0.18900
H325        H  0.87797188  0.03624863  0.71923437     0.14000
H326        H  0.87678046  0.96321224  0.72187644     0.14000
H327        H  0.14923901  0.02242853  0.68754890     0.14000
H328        H  0.14761427  0.94968768  0.69155810     0.14000
H329        H  0.97947890  0.13605177  0.68385160     0.12300
H330        H  0.05054955  0.13282693  0.69044772     0.12300
H331        H  0.97117282  0.85362656  0.69263108     0.12300
H332        H  0.04217799  0.84926721  0.69993114     0.12300
H333        H  0.98082723  0.99454031  0.68034845     0.25600
H334        H  0.04011669  0.99181543  0.71116298     0.25600
O335        O  0.32191431  0.18667333  0.75229263    -0.81500
O336        O  0.25252061  0.31301616  0.65452392    -0.66200
O337        O  0.28185894  0.25250419  0.74110310    -1.12800
C338        C  0.18381560  0.17664619  0.69580480     1.05400
O339        O  0.19458505  0.30938941  0.67119332    -0.79400
O340        O  0.17102714  0.26492973  0.72815794    -0.67000
Ni341      Ni  0.33162223  0.23919891  0.75059768     1.34900
C342        C  0.18397073  0.25545972  0.76175615     0.84100
O343        O  0.30355739  0.32070510  0.71122578    -0.79900
O344        O  0.34466658  0.29080743  0.75073785    -0.90200
C345        C  0.21983142  0.32487126  0.65222915     0.83700
O346        O  0.34711529  0.23378582  0.69700003    -0.68400
O347        O  0.17203040  0.20545121  0.67732859    -0.87700
C348        C  0.33402582  0.24464881  0.66386866     0.84500
C349        C  0.33242613  0.31983597  0.73298835     1.06100
H350        H  0.24369681  0.23099319  0.66188203     0.37900
O351        O  0.23540058  0.24413411  0.68513708    -1.10300
O352        O  0.21354833  0.23661356  0.76601129    -0.67000
Ni353      Ni  0.24789210  0.21399146  0.72962138     1.26300
O354        O  0.30365496  0.26209716  0.66053861    -0.67200
O355        O  0.21301691  0.17604775  0.71701863    -0.79500
C356        C  0.29761865  0.17214510  0.77354112     0.83900
O357        O  0.26500489  0.18457043  0.77272464    -0.66700
Ni358      Ni  0.18555166  0.25690595  0.67496846     1.27400
Ni359      Ni  0.26906116  0.28299473  0.69732881     1.26100
H360        H  0.27404728  0.26559099  0.76458054     0.38500
O361        O  0.81808294  0.31068356  0.75807762    -0.81500
O362        O  0.69141295  0.25119401  0.65045424    -0.66200
O363        O  0.75218344  0.27357588  0.73866261    -1.12800
C364        C  0.82330115  0.17046834  0.69175826     1.05400
O365        O  0.69241731  0.19038143  0.66151667    -0.79400
O366        O  0.73345725  0.16303828  0.72381344    -0.67000
Ni367      Ni  0.76725947  0.32396233  0.74782433     1.34900
C368        C  0.74765396  0.17283673  0.75681399     0.84100
O369        O  0.68418111  0.30018892  0.70928508    -0.79900
O370        O  0.71781845  0.34300868  0.74094828    -0.90200
C371        C  0.67912965  0.21899406  0.64395136     0.83700
O372        O  0.77867732  0.33652774  0.69433549    -0.68400
O373        O  0.79343789  0.15901930  0.67608433    -0.87700
C374        C  0.76417358  0.32686922  0.66146561     0.84500
C375        C  0.68736882  0.33166727  0.72668059     1.06100
H376        H  0.77028283  0.23617665  0.65733424     0.37900
O377        O  0.75791717  0.22783090  0.68065824    -1.10300
O378        O  0.76836485  0.20095948  0.76021634    -0.67000
Ni379      Ni  0.78895397  0.23740754  0.72504453     1.26300
O380        O  0.74189039  0.29997365  0.65865669    -0.67200
O381        O  0.82569728  0.20149387  0.71007264    -0.79500
C382        C  0.83156035  0.28184753  0.77499845     0.83900
O383        O  0.81862770  0.24986881  0.76894742    -0.66700
Ni384      Ni  0.74354562  0.17739940  0.67045716     1.27400
Ni385      Ni  0.72102578  0.26396429  0.69426947     1.26100
H386        H  0.73992477  0.26548456  0.76214893     0.38500
O387        O  0.69209601  0.81328197  0.65287453    -0.81500
O388        O  0.81485848  0.74862503  0.76381159    -0.66200
O389        O  0.75755669  0.77436394  0.67288937    -1.12800
C390        C  0.68447681  0.67403986  0.71490584     1.05400
O391        O  0.81418963  0.68868210  0.74883247    -0.79400
O392        O  0.77374255  0.66224564  0.68698538    -0.67000
Ni393      Ni  0.74292270  0.82500433  0.66337608     1.34900
C394        C  0.76241774  0.67320947  0.65319096     0.84100
O395        O  0.82321921  0.79811824  0.70672690    -0.79900
O396        O  0.79243919  0.84152896  0.67118635    -0.90200
C397        C  0.82787001  0.71598434  0.76779942     0.83700
O398        O  0.73150490  0.83943522  0.71657060    -0.68400
O399        O  0.71325045  0.66240203  0.73313545    -0.87700
C400        C  0.74415537  0.82858266  0.74995047     0.84500
C401        C  0.82130854  0.82917561  0.68871134     1.06100
H402        H  0.73528489  0.73698643  0.75179978     0.37900
O403        O  0.74890494  0.72838470  0.72923063    -1.10300
O404        O  0.74312947  0.70273246  0.64847963    -0.67000
Ni405      Ni  0.72027300  0.73917837  0.68295374     1.26300
O406        O  0.76433752  0.79957091  0.75369093    -0.67200
O407        O  0.68310396  0.70392999  0.69464877    -0.79500
C408        C  0.68009196  0.78598939  0.63250555     0.83900
O409        O  0.69290027  0.75339561  0.63736235    -0.66700
Ni410      Ni  0.76305948  0.67794294  0.73975505     1.27400
Ni411      Ni  0.78643847  0.76312794  0.71876532     1.26100
H412        H  0.77110420  0.76621540  0.65007354     0.38500
N413        N  0.44118369  0.50951118  0.73504877    -0.37200
N414        N  0.49879866  0.45048169  0.73691778    -0.57800
N415        N  0.55343295  0.50650720  0.73013037    -0.37200
N416        N  0.49603928  0.56525666  0.72396905    -0.57800
C417        C  0.42039268  0.47871905  0.73285149     0.26400
C418        C  0.41924385  0.53925055  0.72625939     0.26400
C419        C  0.57409882  0.47544098  0.72353720     0.26400
C420        C  0.57256061  0.53599741  0.71734307     0.26400
C421        C  0.46933378  0.42979235  0.74521983     0.35000
C422        C  0.52865642  0.42809198  0.74197609     0.35000
C423        C  0.46675558  0.58825767  0.72827314     0.35000
C424        C  0.52595595  0.58683492  0.72623957     0.35000
C425        C  0.38453605  0.48924404  0.72382869    -0.22500
C426        C  0.38386901  0.52725252  0.71961170    -0.22500
C427        C  0.60662494  0.48552937  0.70640284    -0.22500
C428        C  0.60571658  0.52359751  0.70265729    -0.22500
C429        C  0.48066836  0.39393721  0.75530824    -0.23500
C430        C  0.51810088  0.39304062  0.75374622    -0.23500
C431        C  0.47819241  0.62469955  0.73263626    -0.23500
C432        C  0.51564014  0.62374263  0.73180586    -0.23500
C433        C  0.43228012  0.44151950  0.74033506    -0.18900
C434        C  0.42981339  0.57709500  0.72586807    -0.18900
C435        C  0.56228826  0.57408939  0.72094353    -0.18900
C436        C  0.56501875  0.43829644  0.73355440    -0.18900
H437        H  0.36094528  0.47156857  0.72099393     0.14000
H438        H  0.35985011  0.54407353  0.71284576     0.14000
H439        H  0.62879393  0.46737810  0.69735082     0.14000
H440        H  0.62714316  0.54031281  0.69046786     0.14000
H441        H  0.46387706  0.37044785  0.76245272     0.12300
H442        H  0.53538742  0.36902234  0.75988445     0.12300
H443        H  0.46145543  0.64952560  0.73587659     0.12300
H444        H  0.53316534  0.64767009  0.73441338     0.12300
H445        H  0.46797846  0.51021432  0.74534323     0.25600
H446        H  0.52976084  0.50821891  0.74655996     0.25600
N447        N  0.44978739  0.49371321  0.17161289    -0.37200
N448        N  0.50345289  0.43427269  0.17568772    -0.57800
N449        N  0.56140325  0.48997771  0.16925887    -0.37200
N450        N  0.50789353  0.54921136  0.16810128    -0.57800
C451        C  0.42708861  0.46482924  0.17724090     0.26400
C452        C  0.42921918  0.52515263  0.17123666     0.26400
C453        C  0.58044176  0.45899329  0.17979925     0.26400
C454        C  0.58271474  0.51945596  0.17861025     0.26400
C455        C  0.47331962  0.41300768  0.17484676     0.35000
C456        C  0.53226895  0.41103454  0.17122066     0.35000
C457        C  0.47884529  0.57203275  0.16195640     0.35000
C458        C  0.53794752  0.57015246  0.16410521     0.35000
C459        C  0.39146989  0.47814632  0.17967128    -0.22500
C460        C  0.39278600  0.51605465  0.17580650    -0.22500
C461        C  0.61418893  0.46883236  0.19565246    -0.22500
C462        C  0.61554513  0.50692320  0.19506084    -0.22500
C463        C  0.48320122  0.37580258  0.17066288    -0.23500
C464        C  0.52049319  0.37462470  0.16763435    -0.23500
C465        C  0.49059804  0.60781557  0.15416488    -0.23500
C466        C  0.52801881  0.60650837  0.15509224    -0.23500
C467        C  0.43705659  0.42661944  0.17819319    -0.18900
C468        C  0.44192864  0.56187115  0.16602309    -0.18900
C469        C  0.57399288  0.55739055  0.17161967    -0.18900
C470        C  0.56908761  0.42185398  0.17422113    -0.18900
H471        H  0.36682372  0.46227266  0.18305344     0.14000
H472        H  0.36930647  0.53466846  0.17577419     0.14000
H473        H  0.63557484  0.45044072  0.20690190     0.14000
H474        H  0.63814927  0.52348714  0.20576990     0.14000
H475        H  0.46554132  0.35190300  0.16973950     0.12300
H476        H  0.53701170  0.34965538  0.16421421     0.12300
H477        H  0.47408220  0.63254148  0.14886729     0.12300
H478        H  0.54575507  0.62987910  0.15044026     0.12300
H479        H  0.47742587  0.49225753  0.16652180     0.25600
H480        H  0.53726518  0.49046445  0.15259730     0.25600
N481        N  0.77974562  0.55282275  0.45403787    -0.37200
N482        N  0.78176993  0.49630883  0.51649886    -0.57800
N483        N  0.78195766  0.43780910  0.45618831    -0.37200
N484        N  0.78610174  0.49430328  0.39387047    -0.57800
C485        C  0.78564509  0.57445013  0.48645829     0.26400
C486        C  0.78798803  0.57328717  0.42181677     0.26400
C487        C  0.78872346  0.41733728  0.48927495     0.26400
C488        C  0.79077323  0.41639058  0.42452741     0.26400
C489        C  0.77343485  0.52703159  0.53821768     0.35000
C490        C  0.77447547  0.46638985  0.53933898     0.35000
C491        C  0.77907862  0.52416686  0.37033741     0.35000
C492        C  0.77975971  0.46358856  0.37144155     0.35000
C493        C  0.79768285  0.60905553  0.47463475    -0.22500
C494        C  0.79917445  0.60831713  0.43396219    -0.22500
C495        C  0.80215904  0.38255759  0.47842450    -0.22500
C496        C  0.80342606  0.38195398  0.43767412    -0.22500
C497        C  0.76085032  0.51651245  0.57490805    -0.23500
C498        C  0.76141903  0.47829229  0.57558603    -0.23500
C499        C  0.76833556  0.51231400  0.33287755    -0.23500
C500        C  0.76870735  0.47409971  0.33358241    -0.23500
C501        C  0.77862621  0.56449284  0.52623758    -0.18900
C502        C  0.78356977  0.56199264  0.38168993    -0.18900
C503        C  0.78526230  0.42617707  0.38410460    -0.18900
C504        C  0.78108888  0.42850972  0.52876208    -0.18900
H505        H  0.80459946  0.63253376  0.49334197     0.14000
H506        H  0.80742779  0.63112402  0.41544439     0.14000
H507        H  0.80999059  0.35980347  0.49782061     0.14000
H508        H  0.81235855  0.35863626  0.41974337     0.14000
H509        H  0.75193763  0.53447518  0.59873651     0.12300
H510        H  0.75296359  0.46127757  0.60004690     0.12300
H511        H  0.76065219  0.52936815  0.30766854     0.12300
H512        H  0.76136611  0.45618311  0.30897506     0.12300
H513        H  0.76705570  0.52712552  0.45367852     0.25600
H514        H  0.76814506  0.46324557  0.45501330     0.25600
N515        N  0.55248579  0.79815171  0.44461037    -0.37200
N516        N  0.49545634  0.79093588  0.38379051    -0.57800
N517        N  0.44197994  0.79833855  0.44398423    -0.37200
N518        N  0.49886032  0.81031045  0.50487348    -0.57800
C519        C  0.57228991  0.80097314  0.41148366     0.26400
C520        C  0.57415851  0.80865220  0.47532615     0.26400
C521        C  0.42026884  0.80068399  0.41131529     0.26400
C522        C  0.42224291  0.81090129  0.47463253     0.26400
C523        C  0.52480599  0.78064326  0.36270727     0.35000
C524        C  0.46590899  0.77969629  0.36279560     0.35000
C525        C  0.52863784  0.80411943  0.52824205     0.35000
C526        C  0.46968276  0.80445766  0.52775942     0.35000
C527        C  0.60702040  0.81349245  0.42126586    -0.22500
C528        C  0.60822874  0.81818042  0.46167875    -0.22500
C529        C  0.38638603  0.81521517  0.42124582    -0.22500
C530        C  0.38762504  0.82166679  0.46136719    -0.22500
C531        C  0.51396424  0.76315764  0.32788209    -0.23500
C532        C  0.47651838  0.76236570  0.32803827    -0.23500
C533        C  0.51841502  0.79537885  0.56630869    -0.23500
C534        C  0.48101496  0.79538936  0.56597922    -0.23500
C535        C  0.56108867  0.78888690  0.37342667    -0.18900
C536        C  0.56496117  0.80622246  0.51554847    -0.18900
C537        C  0.43295562  0.80767487  0.51468393    -0.18900
C538        C  0.42954061  0.78724966  0.37355394    -0.18900
H539        H  0.62952660  0.81770171  0.40149913     0.14000
H540        H  0.63170971  0.82682199  0.47914059     0.14000
H541        H  0.36293779  0.81973905  0.40182748     0.14000
H542        H  0.36521410  0.83185751  0.47904558     0.14000
H543        H  0.53122048  0.75221427  0.30477961     0.12300
H544        H  0.45913562  0.75065927  0.30507644     0.12300
H545        H  0.53601123  0.78880058  0.59145727     0.12300
H546        H  0.46423550  0.78873762  0.59094560     0.12300
H547        H  0.52766670  0.78476934  0.44678164     0.25600
H548        H  0.46655618  0.78369385  0.44646327     0.25600
N549        N  0.18671760  0.44248086  0.46969883    -0.37200
N550        N  0.19328808  0.49048435  0.40238029    -0.57800
N551        N  0.18964064  0.55309884  0.45518759    -0.37200
N552        N  0.18027580  0.50574965  0.52311170    -0.57800
C553        C  0.18206775  0.41756338  0.44007352     0.26400
C554        C  0.17774481  0.42557899  0.50362368     0.26400
C555        C  0.18764146  0.57039344  0.41995051     0.26400
C556        C  0.17953442  0.57820801  0.48266579     0.26400
C557        C  0.20134399  0.45776853  0.38497776     0.35000
C558        C  0.20510726  0.51695587  0.37785369     0.35000
C559        C  0.18810110  0.47865968  0.54952442     0.35000
C560        C  0.18799469  0.53816161  0.54150333     0.35000
C561        C  0.16960458  0.38438132  0.45521830    -0.22500
C562        C  0.16708323  0.38935550  0.49550271    -0.22500
C563        C  0.17570106  0.60687768  0.42485695    -0.22500
C564        C  0.17056750  0.61185124  0.46466820    -0.22500
C565        C  0.21750600  0.46347532  0.34867701    -0.23500
C566        C  0.22005542  0.50118466  0.34425293    -0.23500
C567        C  0.19939220  0.49395392  0.58537506    -0.23500
C568        C  0.19933157  0.53184523  0.58025126    -0.23500
C569        C  0.19282453  0.42289245  0.40073509    -0.18900
C570        C  0.18445310  0.44037027  0.54172641    -0.18900
C571        C  0.18478011  0.57328941  0.52350267    -0.18900
C572        C  0.20038902  0.55517471  0.38444484    -0.18900
H573        H  0.16439005  0.35881504  0.43915791     0.14000
H574        H  0.15957394  0.36824344  0.51648905     0.14000
H575        H  0.17251082  0.62808144  0.40233535     0.14000
H576        H  0.16294790  0.63776829  0.47893655     0.14000
H577        H  0.22658503  0.44270839  0.32761312     0.12300
H578        H  0.23131194  0.51534859  0.31910986     0.12300
H579        H  0.20721418  0.47935544  0.61223734     0.12300
H580        H  0.20722122  0.55231967  0.60226372     0.12300
H581        H  0.20099447  0.46714443  0.46801506     0.25600
H582        H  0.20343695  0.52820508  0.46084794     0.25600
N583        N  0.44001866  0.22096800  0.45848197    -0.37200
N584        N  0.49562609  0.20631942  0.39711996    -0.57800
N585        N  0.55091149  0.20532404  0.45792832    -0.37200
N586        N  0.49569121  0.21543053  0.51908181    -0.57800
C587        C  0.41900195  0.21189848  0.42670075     0.26400
C588        C  0.41916384  0.21774667  0.49108081     0.26400
C589        C  0.57124958  0.19553465  0.42641958     0.26400
C590        C  0.57088215  0.19738759  0.49082843     0.26400
C591        C  0.46632144  0.21607055  0.37449626     0.35000
C592        C  0.52527483  0.21021231  0.37412460     0.35000
C593        C  0.46793947  0.22901805  0.54094373     0.35000
C594        C  0.52653163  0.22068089  0.54069679     0.35000
C595        C  0.38426972  0.20303975  0.43919338    -0.22500
C596        C  0.38438440  0.20674465  0.47981939    -0.22500
C597        C  0.60457664  0.18102634  0.43939329    -0.22500
C598        C  0.60432073  0.18206511  0.48012005    -0.22500
C599        C  0.47744417  0.22571518  0.33684143    -0.23500
C600        C  0.51476577  0.22186154  0.33660469    -0.23500
C601        C  0.48118963  0.24297589  0.57659287    -0.23500
C602        C  0.51834282  0.23754874  0.57652461    -0.23500
C603        C  0.42952957  0.21440253  0.38661312    -0.18900
C604        C  0.43062022  0.22584676  0.53042703    -0.18900
C605        C  0.56164700  0.20826588  0.52964338    -0.18900
C606        C  0.56166352  0.20273358  0.38649896    -0.18900
H607        H  0.36110855  0.19505098  0.42088062     0.14000
H608        H  0.36144751  0.20198718  0.49883406     0.14000
H609        H  0.62706897  0.17161500  0.42138153     0.14000
H610        H  0.62680117  0.17388138  0.49955464     0.14000
H611        H  0.46051056  0.23487592  0.31208947     0.12300
H612        H  0.53216088  0.22732320  0.31177720     0.12300
H613        H  0.46566969  0.25535441  0.60034570     0.12300
H614        H  0.53709946  0.24487795  0.60031686     0.12300
H615        H  0.46577026  0.23271576  0.45733278     0.25600
H616        H  0.52730075  0.22162297  0.45706404     0.25600
C617        C  0.62921591  0.82481555  0.60241914    -0.13900
C618        C  0.65027161  0.79177349  0.60307841     0.08200
C619        C  0.64322705  0.76408956  0.57453137    -0.13900
C620        C  0.61592534  0.76933854  0.54581717    -0.13900
C621        C  0.59489623  0.80216416  0.54527762     0.08200
C622        C  0.60150694  0.82987143  0.57379112    -0.13900
H623        H  0.63399661  0.84655143  0.62411631     0.12200
H624        H  0.65908444  0.73842329  0.57410867     0.12200
H625        H  0.61089261  0.74760994  0.52415248     0.12200
H626        H  0.58520062  0.85524945  0.57383492     0.12200
C627        C  0.79685489  0.62040543  0.62072397    -0.13900
C628        C  0.77015508  0.64894230  0.61822326     0.08200
C629        C  0.74792857  0.65093211  0.58382045    -0.13900
C630        C  0.75114542  0.62406375  0.55370817    -0.13900
C631        C  0.77691661  0.59478410  0.55701890     0.08200
C632        C  0.80033881  0.59386074  0.59041779    -0.13900
H633        H  0.81448035  0.61797350  0.64667976     0.12200
H634        H  0.72684451  0.67223553  0.58098214     0.12200
H635        H  0.73277878  0.62549521  0.52826887     0.12200
H636        H  0.82071795  0.57188670  0.59352126     0.12200
C637        C  0.62356228  0.65261987  0.68814380    -0.13900
C638        C  0.65143943  0.65088670  0.71734078     0.08200
C639        C  0.64866350  0.62503527  0.74821519    -0.13900
C640        C  0.61920454  0.60097818  0.74959522    -0.13900
C641        C  0.59197987  0.60190211  0.71997483     0.08200
C642        C  0.59412562  0.62807650  0.68931507    -0.13900
H643        H  0.62510855  0.67207576  0.66383829     0.12200
H644        H  0.66953348  0.62312904  0.77124950     0.12200
H645        H  0.61791836  0.58104674  0.77349507     0.12200
H646        H  0.57339111  0.62902193  0.66606860     0.12200
C647        C  0.75168423  0.34476114  0.58989455    -0.13900
C648        C  0.77211679  0.34931149  0.62532537     0.08200
C649        C  0.79783399  0.37813131  0.62705862    -0.13900
C650        C  0.80185591  0.40259014  0.59517113    -0.13900
C651        C  0.77996246  0.39937119  0.56073604     0.08200
C652        C  0.75547921  0.36954074  0.55810108    -0.13900
H653        H  0.73160520  0.32298494  0.58730134     0.12200
H654        H  0.81420232  0.38255246  0.65361291     0.12200
H655        H  0.82125747  0.42498521  0.59792317     0.12200
H656        H  0.73831448  0.36622356  0.53193090     0.12200
C657        C  0.63024439  0.18154588  0.60984549    -0.13900
C658        C  0.64827725  0.21550243  0.61563684     0.08200
C659        C  0.63737160  0.24664681  0.59298944    -0.13900
C660        C  0.60926986  0.24394657  0.56505083    -0.13900
C661        C  0.59133405  0.21023114  0.55945947     0.08200
C662        C  0.60171863  0.17898836  0.58192432    -0.13900
H663        H  0.63817850  0.15711416  0.62676307     0.12200
H664        H  0.65083893  0.27315007  0.59646452     0.12200
H665        H  0.60140611  0.26817184  0.54772528     0.12200
H666        H  0.58791446  0.15276664  0.57761174     0.12200
C667        C  0.65617883  0.38863240  0.75510583    -0.13900
C668        C  0.65466481  0.35705605  0.73024873     0.08200
C669        C  0.62236196  0.35132906  0.70786884    -0.13900
C670        C  0.59307370  0.37713377  0.70931917    -0.13900
C671        C  0.59500698  0.40899251  0.73371696     0.08200
C672        C  0.62676224  0.41396737  0.75702918    -0.13900
H673        H  0.68038112  0.39406504  0.77295747     0.12200
H674        H  0.62011785  0.32748272  0.68832010     0.12200
H675        H  0.56913880  0.37261368  0.69073585     0.12200
H676        H  0.62910616  0.43808604  0.77619719     0.12200
C677        C  0.35243495  0.26099812  0.59449074    -0.13900
C678        C  0.35597938  0.23767460  0.62782612     0.08200
C679        C  0.38277644  0.20928085  0.62760836    -0.13900
C680        C  0.40584685  0.20470148  0.59532663    -0.13900
C681        C  0.40316265  0.22873095  0.56264999     0.08200
C682        C  0.37591512  0.25666150  0.56228841    -0.13900
H683        H  0.33240590  0.28346005  0.59394236     0.12200
H684        H  0.38625243  0.19084382  0.65271586     0.12200
H685        H  0.42657072  0.18290418  0.59625087     0.12200
H686        H  0.37351706  0.27572725  0.53759744     0.12200
C687        C  0.23858039  0.37659783  0.60847874    -0.13900
C688        C  0.21079470  0.35738967  0.62751166     0.08200
C689        C  0.17408771  0.36806229  0.62073948    -0.13900
C690        C  0.16528959  0.39626065  0.59387243    -0.13900
C691        C  0.19309578  0.41393610  0.57362687     0.08200
C692        C  0.22972657  0.40465197  0.58160135    -0.13900
H693        H  0.26706592  0.36920485  0.61340845     0.12200
H694        H  0.15212254  0.35378461  0.63511617     0.12200
H695        H  0.13691185  0.40337763  0.58777299     0.12200
H696        H  0.25134698  0.41840719  0.56605128     0.12200
C697        C  0.36222229  0.37354509  0.70195083    -0.13900
C698        C  0.35422635  0.35367993  0.73627774     0.08200
C699        C  0.37040532  0.36402855  0.77259356    -0.13900
C700        C  0.39471687  0.39367667  0.77439246    -0.13900
C701        C  0.40409412  0.41226822  0.73964537     0.08200
C702        C  0.38747390  0.40221801  0.70351365    -0.13900
H703        H  0.35036663  0.36560512  0.67360328     0.12200
H704        H  0.36460637  0.34883987  0.79934326     0.12200
H705        H  0.40725084  0.40126369  0.80250239     0.12200
H706        H  0.39451045  0.41631430  0.67646361     0.12200
C707        C  0.88849531  0.90371662  0.66250850    -0.13900
C708        C  0.91298204  0.90193504  0.69488279     0.08200
C709        C  0.90773090  0.87551556  0.72463021    -0.13900
C710        C  0.87870021  0.85081204  0.72170552    -0.13900
C711        C  0.85382594  0.85291563  0.68959224     0.08200
C712        C  0.85895712  0.87961347  0.66003117    -0.13900
H713        H  0.89207630  0.92413543  0.63943333     0.12200
H714        H  0.92605813  0.87416433  0.75011152     0.12200
H715        H  0.87500336  0.83087820  0.74522979     0.12200
H716        H  0.84007927  0.88190655  0.63509720     0.12200
C717        C  0.88818055  0.09166274  0.66181193    -0.13900
C718        C  0.91642309  0.09442019  0.69044876     0.08200
C719        C  0.91469882  0.12374479  0.71810037    -0.13900
C720        C  0.88539599  0.14940976  0.71733460    -0.13900
C721        C  0.85643760  0.14578775  0.68964104     0.08200
C722        C  0.85843811  0.11673434  0.66164522    -0.13900
H723        H  0.88865122  0.06929030  0.64023439     0.12200
H724        H  0.93562900  0.12625996  0.74095329     0.12200
H725        H  0.88467503  0.17121551  0.73953807     0.12200
H726        H  0.83673126  0.11306490  0.63985668     0.12200
C727        C  0.13395055  0.09009237  0.72643791    -0.13900
C728        C  0.10929312  0.08549448  0.69450943     0.08200
C729        C  0.11244419  0.10820681  0.66105302    -0.13900
C730        C  0.13759151  0.13710347  0.66093086    -0.13900
C731        C  0.16117162  0.14287029  0.69358814     0.08200
C732        C  0.15999251  0.11826931  0.72578527    -0.13900
H733        H  0.13230453  0.07251921  0.75230598     0.12200
H734        H  0.09418095  0.10464015  0.63579815     0.12200
H735        H  0.13806704  0.15547814  0.63561152     0.12200
H736        H  0.17780908  0.12209411  0.75136478     0.12200
C737        C  0.23896999  0.65118248  0.56723045    -0.13900
C738        C  0.21180724  0.67225817  0.58609030     0.08200
C739        C  0.17527547  0.66069738  0.58405745    -0.13900
C740        C  0.16628476  0.62780444  0.56443354    -0.13900
C741        C  0.19372163  0.60657404  0.54657667     0.08200
C742        C  0.22991672  0.61854871  0.54748937    -0.13900
H743        H  0.26730218  0.65947626  0.56850024     0.12200
H744        H  0.15393181  0.67632664  0.59876739     0.12200
H745        H  0.13814312  0.61890810  0.56308206     0.12200
H746        H  0.25108924  0.60247200  0.53297678     0.12200
C747        C  0.35550105  0.76600858  0.56996914    -0.13900
C748        C  0.35415014  0.78921102  0.60339426     0.08200
C749        C  0.37668452  0.82046904  0.60596363    -0.13900
C750        C  0.40120722  0.82773551  0.57605958    -0.13900
C751        C  0.40393823  0.80332803  0.54382659     0.08200
C752        C  0.38053203  0.77285222  0.54051236    -0.13900
H753        H  0.33849828  0.74162322  0.56754159     0.12200
H754        H  0.37579987  0.83883125  0.63143479     0.12200
H755        H  0.41905063  0.85145564  0.57872923     0.12200
H756        H  0.38254484  0.75371960  0.51575059     0.12200
C757        C  0.35919216  0.64347780  0.67960297    -0.13900
C758        C  0.35145052  0.66736438  0.71151547     0.08200
C759        C  0.36743012  0.65954186  0.74878284    -0.13900
C760        C  0.39153442  0.62925984  0.75381077    -0.13900
C761        C  0.40086409  0.60665858  0.72147587     0.08200
C762        C  0.38400647  0.61361405  0.68446320    -0.13900
H763        H  0.34750250  0.64901232  0.65051538     0.12200
H764        H  0.36181874  0.67739562  0.77391570     0.12200
H765        H  0.40403149  0.62426303  0.78262313     0.12200
H766        H  0.39081854  0.59647054  0.65914229     0.12200
C767        C  0.10640248  0.86636187  0.66872404    -0.13900
C768        C  0.10437932  0.89015157  0.70177000     0.08200
C769        C  0.12837782  0.88367361  0.73403515    -0.13900
C770        C  0.15309111  0.85338422  0.73367710    -0.13900
C771        C  0.15388153  0.82855101  0.70130653     0.08200
C772        C  0.13038292  0.83562444  0.66875557    -0.13900
H773        H  0.08849293  0.87098478  0.64331950     0.12200
H774        H  0.12746448  0.90167228  0.75979558     0.12200
H775        H  0.17061697  0.84858248  0.75936002     0.12200
H776        H  0.13033002  0.81714909  0.64335794     0.12200
C777        C  0.13317016  0.71299322  0.86624120    -0.13900
C778        C  0.10778040  0.68460599  0.86003137     0.08200
C779        C  0.10880603  0.66316276  0.82538799    -0.13900
C780        C  0.13308894  0.67200964  0.79576813    -0.13900
C781        C  0.15696763  0.70202848  0.80080532     0.08200
C782        C  0.15783084  0.72153806  0.83685595    -0.13900
H783        H  0.13254972  0.72977190  0.89293877     0.12200
H784        H  0.08940895  0.64104517  0.82044445     0.12200
H785        H  0.13231329  0.65620548  0.76841179     0.12200
H786        H  0.17605634  0.74472292  0.84145174     0.12200
C787        C  0.90404030  0.73332505  0.84264701    -0.13900
C788        C  0.91744714  0.69716058  0.84936009     0.08200
C789        C  0.90283982  0.66734054  0.82776508    -0.13900
C790        C  0.87423690  0.67352268  0.80049872    -0.13900
C791        C  0.85991256  0.70966912  0.79442722     0.08200
C792        C  0.87557550  0.73958571  0.81534225    -0.13900
H793        H  0.91525946  0.75659035  0.85908743     0.12200
H794        H  0.91305161  0.63927148  0.83269292     0.12200
H795        H  0.86287193  0.64991355  0.78478901     0.12200
H796        H  0.86536576  0.76776615  0.81122315     0.12200
C797        C  0.70949935  0.90756746  0.81588157    -0.13900
C798        C  0.73084354  0.90266438  0.85056293     0.08200
C799        C  0.75414424  0.87130128  0.85310518    -0.13900
C800        C  0.75703491  0.84624233  0.82125934    -0.13900
C801        C  0.73690025  0.85200869  0.78580579     0.08200
C802        C  0.71266976  0.88277440  0.78385318    -0.13900
H803        H  0.69115953  0.93136084  0.81313696     0.12200
H804        H  0.77105572  0.86686862  0.87932488     0.12200
H805        H  0.77622716  0.82314874  0.82387350     0.12200
H806        H  0.69678552  0.88828952  0.75713669     0.12200
C807        C  0.76476833  0.15124900  0.82603104    -0.13900
C808        C  0.74151307  0.14906240  0.79237712     0.08200
C809        C  0.71488087  0.12113659  0.79142435    -0.13900
C810        C  0.71228589  0.09552882  0.82248048    -0.13900
C811        C  0.73641004  0.09683127  0.85527377     0.08200
C812        C  0.76230142  0.12539340  0.85702343    -0.13900
H813        H  0.78589211  0.17203975  0.82772669     0.12200
H814        H  0.69652806  0.11846000  0.76613242     0.12200
H815        H  0.69194640  0.07395810  0.82046690     0.12200
H816        H  0.78133128  0.12699329  0.88185479     0.12200
C817        C  0.90931298  0.32199045  0.83628083    -0.13900
C818        C  0.92174320  0.29016157  0.85652185     0.08200
C819        C  0.90546755  0.25581903  0.84918800    -0.13900
C820        C  0.87667218  0.25318792  0.82204478    -0.13900
C821        C  0.86347516  0.28500652  0.80195453     0.08200
C822        C  0.88020362  0.31946036  0.80911465    -0.13900
H823        H  0.92172602  0.34871208  0.84205056     0.12200
H824        H  0.91486216  0.23115501  0.86489786     0.12200
H825        H  0.86436906  0.22624347  0.81733986     0.12200
H826        H  0.87055138  0.34440905  0.79414710     0.12200
C827        C  0.11165851  0.30193557  0.82457771    -0.13900
C828        C  0.11234842  0.27966803  0.85860816     0.08200
C829        C  0.13972060  0.25201290  0.86267461    -0.13900
C830        C  0.16459303  0.24536451  0.83218114    -0.13900
C831        C  0.16228703  0.26608263  0.79696061     0.08200
C832        C  0.13610990  0.29506294  0.79402744    -0.13900
H833        H  0.09118428  0.32376906  0.82102365     0.12200
H834        H  0.14088636  0.23460410  0.88877701     0.12200
H835        H  0.18436026  0.22282869  0.83533090     0.12200
H836        H  0.13380849  0.31183221  0.76750746     0.12200
C837        C  0.35275770  0.09738614  0.82725190    -0.13900
C838        C  0.32610835  0.08280704  0.85173626     0.08200
C839        C  0.29011534  0.09629250  0.84929009    -0.13900
C840        C  0.28074367  0.12470959  0.82311844    -0.13900
C841        C  0.30733980  0.14023648  0.79902972     0.08200
C842        C  0.34341413  0.12608186  0.80096694    -0.13900
H843        H  0.38064561  0.08701586  0.82899665     0.12200
H844        H  0.26936102  0.08501554  0.86813521     0.12200
H845        H  0.25278692  0.13494326  0.82230308     0.12200
H846        H  0.36446877  0.13756044  0.78269953     0.12200
C847        C  0.27651906  0.88208816  0.85395152    -0.13900
C848        C  0.31309984  0.88981082  0.86277736     0.08200
C849        C  0.34089958  0.86589691  0.84984840    -0.13900
C850        C  0.33202972  0.83426690  0.82790197    -0.13900
C851        C  0.29528088  0.82648521  0.81875073     0.08200
C852        C  0.26761879  0.85064358  0.83200463    -0.13900
H853        H  0.25490884  0.90026975  0.86449943     0.12200
H854        H  0.36920000  0.87145606  0.85730538     0.12200
H855        H  0.35387966  0.81624036  0.81768190     0.12200
H856        H  0.23913863  0.84552604  0.82502019     0.12200
C857        C  0.37514935  0.79501753  0.27823493    -0.13900
C858        C  0.35038692  0.76569206  0.28178732     0.08200
C859        C  0.34943651  0.74581434  0.31754800    -0.13900
C860        C  0.37431433  0.75376292  0.34820463    -0.13900
C861        C  0.40021358  0.78176265  0.34351078     0.08200
C862        C  0.39976393  0.80302296  0.30887256    -0.13900
H863        H  0.37629149  0.81108829  0.25124573     0.12200
H864        H  0.33067139  0.72306763  0.32113576     0.12200
H865        H  0.37434090  0.73719593  0.37492770     0.12200
H866        H  0.41942454  0.82493159  0.30504951     0.12200
C867        C  0.24174498  0.59998276  0.35364522    -0.13900
C868        C  0.20888585  0.58057403  0.35247127     0.08200
C869        C  0.18400779  0.58528718  0.32109168    -0.13900
C870        C  0.19157344  0.61013855  0.29113534    -0.13900
C871        C  0.22419456  0.63026934  0.29235562     0.08200
C872        C  0.24949939  0.62472403  0.32351293    -0.13900
H873        H  0.26103318  0.59618712  0.37802570     0.12200
H874        H  0.15862057  0.57013427  0.32022210     0.12200
H875        H  0.17164085  0.61404535  0.26740391     0.12200
H876        H  0.27464112  0.64024892  0.32518201     0.12200
C877        C  0.37727790  0.64027630  0.13758494    -0.13900
C878        C  0.36175649  0.64841988  0.17433220     0.08200
C879        C  0.37288320  0.62841318  0.20805681    -0.13900
C880        C  0.39953977  0.60073161  0.20519218    -0.13900
C881        C  0.41460733  0.59213498  0.16841921     0.08200
C882        C  0.40326034  0.61173184  0.13451105    -0.13900
H883        H  0.36899027  0.65568134  0.11136277     0.12200
H884        H  0.36154614  0.63480958  0.23673606     0.12200
H885        H  0.40826723  0.58569751  0.23151870     0.12200
H886        H  0.41476598  0.60510669  0.10598445     0.12200
C887        C  0.31082312  0.86923125  0.11401747    -0.13900
C888        C  0.27716290  0.85096466  0.11530022     0.08200
C889        C  0.24835471  0.86219506  0.08989989    -0.13900
C890        C  0.25371776  0.89024031  0.06238886    -0.13900
C891        C  0.28775245  0.90725554  0.06042468     0.08200
C892        C  0.31604615  0.89728867  0.08668690    -0.13900
H893        H  0.33348631  0.86113121  0.13328329     0.12200
H894        H  0.22219415  0.84850788  0.09037507     0.12200
H895        H  0.23185666  0.89791336  0.04187692     0.12200
H896        H  0.34247953  0.91033669  0.08498217     0.12200
C897        C  0.10397570  0.67141670  0.09654156    -0.13900
C898        C  0.10475080  0.69080805  0.06065110     0.08200
C899        C  0.13162682  0.71773064  0.05514516    -0.13900
C900        C  0.15591580  0.72682352  0.08597912    -0.13900
C901        C  0.15348415  0.70931965  0.12295289     0.08200
C902        C  0.12800149  0.68069138  0.12747661    -0.13900
H903        H  0.08367454  0.65027868  0.10115123     0.12200
H904        H  0.13268636  0.73290017  0.02755245     0.12200
H905        H  0.17536640  0.74878709  0.08146725     0.12200
H906        H  0.12582301  0.66622648  0.15537986     0.12200
C907        C  0.80408099  0.61515701  0.28699071    -0.13900
C908        C  0.77700017  0.64338090  0.28703507     0.08200
C909        C  0.75410921  0.64624842  0.32001146    -0.13900
C910        C  0.75684288  0.62041957  0.35094560    -0.13900
C911        C  0.78286754  0.59133280  0.35008849     0.08200
C912        C  0.80713001  0.58961621  0.31828088    -0.13900
H913        H  0.82223442  0.61211109  0.26219989     0.12200
H914        H  0.73279217  0.66740259  0.32106890     0.12200
H915        H  0.73782599  0.62245059  0.37507241     0.12200
H916        H  0.82773170  0.56774312  0.31710734     0.12200
C917        C  0.63879249  0.74705950  0.31687068    -0.13900
C918        C  0.64681133  0.77599475  0.29058836     0.08200
C919        C  0.62504642  0.80849096  0.29031295    -0.13900
C920        C  0.59627328  0.81229478  0.31659574    -0.13900
C921        C  0.58930903  0.78381189  0.34348861     0.08200
C922        C  0.61031492  0.75106019  0.34329258    -0.13900
H923        H  0.65513140  0.72170560  0.31778625     0.12200
H924        H  0.63055402  0.83107205  0.27022825     0.12200
H925        H  0.58000237  0.83769940  0.31669048     0.12200
H926        H  0.60501123  0.72896781  0.36407850     0.12200
C927        C  0.66297871  0.60641374  0.15202742    -0.13900
C928        C  0.66229637  0.63567622  0.17980376     0.08200
C929        C  0.63195106  0.63939850  0.20457112    -0.13900
C930        C  0.60327373  0.61407772  0.20197538    -0.13900
C931        C  0.60402561  0.58500139  0.17405954     0.08200
C932        C  0.63404827  0.58153496  0.14901822    -0.13900
H933        H  0.68591542  0.60270312  0.13254379     0.12200
H934        H  0.63072212  0.66138784  0.22654463     0.12200
H935        H  0.58056544  0.61698432  0.22191700     0.12200
H936        H  0.63520334  0.55925330  0.12736718     0.12200
C937        C  0.88413278  0.67857888  0.11169593    -0.13900
C938        C  0.86091016  0.70997327  0.10984976     0.08200
C939        C  0.86469675  0.73572864  0.07902036    -0.13900
C940        C  0.89121665  0.73007347  0.05044332    -0.13900
C941        C  0.91443178  0.69881685  0.05257131     0.08200
C942        C  0.91086424  0.67315068  0.08331818    -0.13900
H943        H  0.88175721  0.65835449  0.13516589     0.12200
H944        H  0.84687116  0.75996465  0.07672108     0.12200
H945        H  0.89390112  0.75015399  0.02686545     0.12200
H946        H  0.92886008  0.64902426  0.08529771     0.12200
C947        C  0.75357719  0.86815561  0.05589833    -0.13900
C948        C  0.72937215  0.89873055  0.05841870     0.08200
C949        C  0.70754102  0.90213646  0.09214848    -0.13900
C950        C  0.71114050  0.87667925  0.12343225    -0.13900
C951        C  0.73627871  0.84673334  0.12157171     0.08200
C952        C  0.75688212  0.84240929  0.08696264    -0.13900
H953        H  0.77093006  0.86496241  0.03045029     0.12200
H954        H  0.68856243  0.92535837  0.09484505     0.12200
H955        H  0.69487479  0.88103255  0.14954191     0.12200
H956        H  0.77680106  0.81999546  0.08454964     0.12200
C957        C  0.62580764  0.17960123  0.30198252    -0.13900
C958        C  0.64877451  0.21075232  0.30247360     0.08200
C959        C  0.64245650  0.23907490  0.33050128    -0.13900
C960        C  0.61432387  0.23612173  0.35772448    -0.13900
C961        C  0.59145999  0.20512428  0.35717640     0.08200
C962        C  0.59717048  0.17697303  0.32891731    -0.13900
H963        H  0.62991815  0.15737372  0.28072168     0.12200
H964        H  0.65976502  0.26327665  0.33190848     0.12200
H965        H  0.61030178  0.25810523  0.37930755     0.12200
H966        H  0.57970741  0.15287959  0.32802015     0.12200
C967        C  0.80350062  0.36991634  0.29021621    -0.13900
C968        C  0.77615134  0.34273536  0.29137896     0.08200
C969        C  0.75426496  0.34115189  0.32518541    -0.13900
C970        C  0.75813905  0.36738894  0.35578172    -0.13900
C971        C  0.78418632  0.39566750  0.35358446     0.08200
C972        C  0.80758144  0.39591133  0.32102604    -0.13900
H973        H  0.82100587  0.37192966  0.26483854     0.12200
H974        H  0.73292033  0.32070324  0.32721472     0.12200
H975        H  0.73982402  0.36647793  0.38056913     0.12200
H976        H  0.82816369  0.41713961  0.31878996     0.12200
C977        C  0.62974111  0.34340454  0.21078976    -0.13900
C978        C  0.65806744  0.34457606  0.18339492     0.08200
C979        C  0.65553419  0.36916371  0.15128535    -0.13900
C980        C  0.62538622  0.39289376  0.14711163    -0.13900
C981        C  0.59783339  0.39273815  0.17538710     0.08200
C982        C  0.59997880  0.36771155  0.20706730    -0.13900
H983        H  0.63132774  0.32475779  0.23590289     0.12200
H984        H  0.67700575  0.37025687  0.12968923     0.12200
H985        H  0.62410296  0.41236147  0.12269839     0.12200
H986        H  0.57917060  0.36783332  0.22946072     0.12200
C987        C  0.75747342  0.12127824  0.06294276    -0.13900
C988        C  0.73174838  0.09267974  0.06335416     0.08200
C989        C  0.70888277  0.08980872  0.09624492    -0.13900
C990        C  0.71281575  0.11398860  0.12874098    -0.13900
C991        C  0.73943149  0.14191341  0.12887335     0.08200
C992        C  0.76113088  0.14569263  0.09512448    -0.13900
H993        H  0.77563608  0.12393206  0.03818845     0.12200
H994        H  0.68876125  0.06802015  0.09726694     0.12200
H995        H  0.69562822  0.11022406  0.15413063     0.12200
H996        H  0.78208354  0.16664435  0.09415279     0.12200
C997        C  0.87624007  0.24367594  0.09409329    -0.13900
C998        C  0.86343018  0.27464434  0.11571433     0.08200
C999        C  0.87914811  0.30959503  0.10899039    -0.13900
C1000       C  0.90692456  0.31348003  0.08143805    -0.13900
C1001       C  0.91938057  0.28259967  0.05986167     0.08200
C1002       C  0.90391710  0.24767331  0.06635722    -0.13900
H1003       H  0.86461839  0.21643710  0.09828672     0.12200
H1004       H  0.86988378  0.33406446  0.12492115     0.12200
H1005       H  0.91857224  0.34062723  0.07670896     0.12200
H1006       H  0.91327145  0.22356092  0.04986705     0.12200
C1007       C  0.17769257  0.35932869  0.31449740    -0.13900
C1008       C  0.21251078  0.34273798  0.31139372     0.08200
C1009       C  0.23895076  0.34890181  0.34122140    -0.13900
C1010       C  0.23123240  0.37269775  0.37268140    -0.13900
C1011       C  0.19713773  0.39063470  0.37446003     0.08200
C1012       C  0.17014513  0.38338338  0.34577123    -0.13900
H1013       H  0.15670332  0.35470246  0.29210473     0.12200
H1014       H  0.26578257  0.33595263  0.33982488     0.12200
H1015       H  0.25245454  0.37883363  0.39438600     0.12200
H1016       H  0.14399066  0.39780153  0.34657595     0.12200
C1017       C  0.37625882  0.19688998  0.29153056    -0.13900
C1018       C  0.35159896  0.22713906  0.29127063     0.08200
C1019       C  0.35063683  0.25125781  0.32413032    -0.13900
C1020       C  0.37511443  0.24626910  0.35580542    -0.13900
C1021       C  0.40051398  0.21672943  0.35547061     0.08200
C1022       C  0.40020296  0.19143907  0.32366070    -0.13900
H1023       H  0.37747066  0.17789949  0.26660447     0.12200
H1024       H  0.33213465  0.27504102  0.32451949     0.12200
H1025       H  0.37515387  0.26621703  0.37993252     0.12200
H1026       H  0.41958693  0.16840990  0.32302284     0.12200
C1027       C  0.37040379  0.35124688  0.15054224    -0.13900
C1028       C  0.35250523  0.34557953  0.18641112     0.08200
C1029       C  0.36123648  0.36797716  0.21928366    -0.13900
C1030       C  0.38879320  0.39444114  0.21671607    -0.13900
C1031       C  0.40731373  0.39920671  0.18105875     0.08200
C1032       C  0.39727871  0.37814322  0.14777408    -0.13900
H1033       H  0.36409093  0.33426749  0.12482329     0.12200
H1034       H  0.34807031  0.36374736  0.24734131     0.12200
H1035       H  0.39607877  0.41083834  0.24256668     0.12200
H1036       H  0.41100432  0.38190260  0.11996326     0.12200
C1037       C  0.15940305  0.24907829  0.09184954    -0.13900
C1038       C  0.15671163  0.26950709  0.12725923     0.08200
C1039       C  0.13229386  0.29996535  0.12902523    -0.13900
C1040       C  0.10933119  0.30833273  0.09681643    -0.13900
C1041       C  0.11004827  0.28594452  0.06274338     0.08200
C1042       C  0.13603369  0.25709017  0.05992617    -0.13900
H1043       H  0.17809829  0.22557395  0.08957143     0.12200
H1044       H  0.13006647  0.31650720  0.15575580     0.12200
H1045       H  0.08955066  0.33088471  0.09924449     0.12200
H1046       H  0.13689066  0.23955596  0.03379107     0.12200
C1047       C  0.26817732  0.14297697  0.07751288    -0.13900
C1048       C  0.29229302  0.14576560  0.11013436     0.08200
C1049       C  0.32497674  0.12484923  0.11071785    -0.13900
C1050       C  0.33257201  0.10015590  0.07998968    -0.13900
C1051       C  0.30786401  0.09664213  0.04817740     0.08200
C1052       C  0.27601503  0.11858144  0.04659144    -0.13900
H1053       H  0.24312772  0.15934305  0.07612525     0.12200
H1054       H  0.34408261  0.12674893  0.13545258     0.12200
H1055       H  0.35690370  0.08270599  0.08169637     0.12200
H1056       H  0.25653689  0.11552252  0.02233091     0.12200
C1057       C  0.13613848  0.83892293  0.27528849    -0.13900
C1058       C  0.14714960  0.83130262  0.23643397     0.08200
C1059       C  0.13444588  0.85386705  0.20527363    -0.13900
C1060       C  0.11000133  0.88295250  0.21265015    -0.13900
C1061       C  0.09879010  0.89043318  0.25136372     0.08200
C1062       C  0.11233936  0.86870675  0.28280800    -0.13900
H1063       H  0.14600344  0.82187531  0.29970251     0.12200
H1064       H  0.14255302  0.84826299  0.17512837     0.12200
H1065       H  0.09961316  0.89963347  0.18818393     0.12200
H1066       H  0.10394135  0.87440512  0.31282613     0.12200
C1067       C  0.91045797  0.87128033  0.20928343    -0.13900
C1068       C  0.91090575  0.89787624  0.23978170     0.08200
C1069       C  0.88173300  0.89980317  0.26604967    -0.13900
C1070       C  0.85223922  0.87578828  0.26166291    -0.13900
C1071       C  0.85140657  0.84926225  0.23092728     0.08200
C1072       C  0.88101584  0.84706424  0.20496387    -0.13900
H1073       H  0.93261626  0.86972769  0.18850194     0.12200
H1074       H  0.88164365  0.92029459  0.28965324     0.12200
H1075       H  0.82997541  0.87816278  0.28223109     0.12200
H1076       H  0.88107109  0.82717951  0.18079462     0.12200
C1077       C  0.91512954  0.11804857  0.21434254    -0.13900
C1078       C  0.91509298  0.08903365  0.24196611     0.08200
C1079       C  0.88588898  0.08593323  0.26796360    -0.13900
C1080       C  0.85644090  0.11078023  0.26557379    -0.13900
C1081       C  0.85593449  0.13940358  0.23738455     0.08200
C1082       C  0.88590475  0.14332850  0.21233057    -0.13900
H1083       H  0.93737521  0.12057906  0.19385694     0.12200
H1084       H  0.88555275  0.06363174  0.28944586     0.12200
H1085       H  0.83383743  0.10724347  0.28539763     0.12200
H1086       H  0.88615215  0.16505955  0.19020323     0.12200
C1087       C  0.12011375  0.09048445  0.20944493    -0.13900
C1088       C  0.10494828  0.08484847  0.24684217     0.08200
C1089       C  0.11548336  0.10770174  0.27860145    -0.13900
C1090       C  0.13916993  0.13717427  0.27256637    -0.13900
C1091       C  0.15365602  0.14351425  0.23498375     0.08200
C1092       C  0.14472551  0.11937492  0.20364795    -0.13900
H1093       H  0.11219837  0.07302250  0.18462281     0.12200
H1094       H  0.10415608  0.10361152  0.30763765     0.12200
H1095       H  0.14585540  0.15539339  0.29718846     0.12200
H1096       H  0.15542119  0.12391826  0.17440132     0.12200
loop_ 
_geom_bond_atom_site_label_1 
_geom_bond_atom_site_label_2 
_geom_bond_distance 
_geom_bond_site_symmetry_2 
_ccdc_geom_bond_type 
N1            C6   1.350   1_565  A
N1            C5   1.353       .  A
N1           H33   1.039       .  S
N2            C9   1.352   1_455  A
N2           C10   1.348       .  A
N3            C8   1.356   1_565  A
N3            C7   1.352       .  A
N3           H34   1.037       .  S
N4           C11   1.350   1_455  A
N4           C12   1.351       .  A
C5           C13   1.387       .  A
C5           C21   1.412       .  A
C6           C22   1.411       .  A
C6           C14   1.387       .  A
C7           C15   1.388       .  A
C7           C24   1.417       .  A
C8           C23   1.416       .  A
C8           C16   1.386       .  A
C9           C21   1.410       .  A
C9           C17   1.384       .  A
C10          C24   1.413       .  A
C10          C18   1.389       .  A
C11          C19   1.385       .  A
C11          C22   1.410       .  A
C12          C20   1.387       .  A
C12          C23   1.413       .  A
C13          C14   1.373   1_565  A
C13          H25   1.082       .  S
C14          H26   1.083       .  S
C15          C16   1.372   1_565  A
C15          H27   1.082       .  S
C16          H28   1.082       .  S
C17          C18   1.372   1_655  A
C17          H29   1.082       .  S
C18          H30   1.082       .  S
C19          C20   1.370   1_655  A
C19          H31   1.082       .  S
C20          H32   1.081       .  S
C21        C1068   1.485       .  S
C22        C1078   1.479       .  S
C23        C1088   1.485       .  S
C24        C1061   1.475       .  S
O35         Ni41   1.911       .  S
O35          C56   1.266       .  A
O36         Ni59   1.899       .  S
O36          C45   1.265       .  A
O37         Ni41   1.906       .  S
O37         Ni59   1.900       .  S
O37         Ni53   1.918       .  S
O37          H60   0.967       .  S
C38        C1028   1.471       .  S
C38          O55   1.279       .  A
C38          O47   1.276       .  A
O39         Ni58   1.914       .  S
O39          C45   1.267       .  A
O40         Ni58   1.909       .  S
O40          C42   1.268       .  A
Ni41         O44   1.917       .  S
Ni41         O46   1.904       .  S
C42        C1018   1.473       .  S
C42          O52   1.267       .  A
O43         Ni59   1.926       .  S
O43          C49   1.278       .  A
O44          C49   1.276       .  A
C45        C1048   1.466       .  S
O46          C48   1.267       .  A
O47         Ni58   1.912       .  S
C48        C1038   1.474       .  S
C48          O54   1.267       .  A
C49        C1091   1.473       .  S
H50          O51   0.966       .  S
O51         Ni59   1.915       .  S
O51         Ni53   1.897       .  S
O51         Ni58   1.903       .  S
O52         Ni53   1.909       .  S
Ni53         O57   1.899       .  S
Ni53         O55   1.926       .  S
O54         Ni59   1.913       .  S
C56        C1008   1.467       .  S
C56          O57   1.265       .  A
O61         Ni67   1.946       .  S
O61          C82   1.274       .  A
O62         Ni85   1.911       .  S
O62          C71   1.267       .  A
O63         Ni67   1.923       .  S
O63         Ni85   1.915       .  S
O63         Ni79   1.897       .  S
O63          H86   0.964       .  S
C64         C978   1.463       .  S
C64          O81   1.269       .  A
C64          O73   1.275       .  A
O65         Ni84   1.933       .  S
O65          C71   1.272       .  A
O66         Ni84   1.914       .  S
O66          C68   1.270       .  A
Ni67         O70   1.926       .  S
Ni67         O72   1.921       .  S
C68         C968   1.494       .  S
C68          O78   1.275       .  A
O69         Ni85   1.897       .  S
O69          C75   1.271       .  A
O70          C75   1.277       .  A
C71         C998   1.488       .  S
O72          C74   1.272       .  A
O73         Ni84   1.923       .  S
C74         C991   1.492       .  S
C74          O80   1.272       .  A
C75        C1081   1.472       .  S
H76          O77   0.968       .  S
O77         Ni85   1.900       .  S
O77         Ni79   1.913       .  S
O77         Ni84   1.918       .  S
O78         Ni79   1.939       .  S
Ni79         O83   1.905       .  S
Ni79         O81   1.890       .  S
O80         Ni85   1.927       .  S
C82         C958   1.488       .  S
C82          O83   1.266       .  A
O87         Ni93   1.930       .  S
O87         C108   1.272       .  A
O88        Ni111   1.882       .  S
O88          C97   1.263       .  A
O89         Ni93   1.911       .  S
O89        Ni111   1.894       .  S
O89        Ni105   1.912       .  S
O89         H112   0.967       .  S
C90        C1071   1.483       .  S
C90         O107   1.278       .  A
C90          O99   1.279       .  A
O91        Ni110   1.937       .  S
O91          C97   1.274       .  A
O92        Ni110   1.920       .  S
O92          C94   1.271       .  A
Ni93         O96   1.930       .  S
Ni93         O98   1.918       .  S
C94         C951   1.496       .  S
C94         O104   1.273       .  A
O95        Ni111   1.916       .  S
O95         C101   1.276       .  A
O96         C101   1.279       .  A
C97         C918   1.470       .  S
O98         C100   1.270       .  A
O99        Ni110   1.928       .  S
C100        C908   1.493       .  S
C100        O106   1.272       .  A
C101        C928   1.484       .  S
H102        O103   0.966       .  S
O103       Ni111   1.908       .  S
O103       Ni105   1.895       .  S
O103       Ni110   1.909       .  S
O104       Ni105   1.933       .  S
Ni105       O109   1.893       .  S
Ni105       O107   1.919       .  S
O106       Ni111   1.931       .  S
C108        C938   1.470       .  S
C108        O109   1.265       .  A
O113       Ni119   1.915       .  S
O113        C134   1.268       .  A
O114       Ni137   1.892       .  S
O114        C123   1.265       .  A
O115       Ni119   1.893       .  S
O115       Ni137   1.890       .  S
O115       Ni131   1.906       .  S
O115        H138   0.966       .  S
C116       C1058   1.463       .  S
C116        O133   1.278       .  A
C116        O125   1.277       .  A
O117       Ni136   1.909       .  S
O117        C123   1.266       .  A
O118       Ni136   1.903       .  S
O118        C120   1.267       .  A
Ni119       O122   1.916       .  S
Ni119       O124   1.901       .  S
C120        C901   1.482       .  S
C120        O130   1.271       .  A
O121       Ni137   1.905       .  S
O121        C127   1.276       .  A
O122        C127   1.277       .  A
C123        C871   1.457       .  S
O124        C126   1.267       .  A
O125       Ni136   1.916       .  S
C126        C858   1.477       .  S
C126        O132   1.269       .  A
C127        C878   1.458       .  S
H128        O129   0.966       .  S
O129       Ni137   1.904       .  S
O129       Ni131   1.885       .  S
O129       Ni136   1.889       .  S
O130       Ni131   1.928       .  S
Ni131       O135   1.891       .  S
Ni131       O133   1.914       .  S
O132       Ni137   1.921       .  S
C134        C888   1.462       .  S
C134        O135   1.266       .  A
N139        C144   1.347       .  A
N139        C143   1.349       .  A
N139        H171   1.036       .  S
N140        C147   1.345       .  A
N140        C148   1.344   1_565  A
N141        C146   1.347       .  A
N141        C145   1.350       .  A
N141        H172   1.037       .  S
N142        C149   1.350       .  A
N142        C150   1.350   1_565  A
C143        C151   1.388       .  A
C143        C159   1.408   1_556  A
C144        C160   1.405       .  A
C144        C152   1.388       .  A
C145        C153   1.386       .  A
C145        C162   1.409   1_556  A
C146        C161   1.406       .  A
C146        C154   1.386       .  A
C147        C159   1.400       .  A
C147        C155   1.385       .  A
C148        C162   1.406       .  A
C148        C156   1.388       .  A
C149        C157   1.386       .  A
C149        C160   1.408       .  A
C150        C158   1.386       .  A
C150        C161   1.408       .  A
C151        C152   1.371       .  A
C151        H163   1.082   1_556  S
C152        H164   1.082       .  S
C153        C154   1.377       .  A
C153        H165   1.082       .  S
C154        H166   1.082       .  S
C155        C156   1.370   1_565  A
C155        H167   1.083       .  S
C156        H168   1.082       .  S
C157        C158   1.372   1_565  A
C157        H169   1.082       .  S
C158        H170   1.082       .  S
C159        C891   1.461       .  S
C160        C848   1.465       .  S
C161        C838   1.470       .  S
C162       C1051   1.467       .  S
N173        C178   1.349       .  A
N173        C177   1.354       .  A
N173        H205   1.037       .  S
N174        C181   1.354   1_455  A
N174        C182   1.349       .  A
N175        C180   1.355       .  A
N175        C179   1.350       .  A
N175        H206   1.040       .  S
N176        C183   1.350   1_455  A
N176        C184   1.353       .  A
C177        C185   1.385       .  A
C177        C193   1.412   1_556  A
C178        C194   1.414       .  A
C178        C186   1.390       .  A
C179        C187   1.388       .  A
C179        C196   1.414   1_556  A
C180        C195   1.413       .  A
C180        C188   1.385       .  A
C181        C193   1.411       .  A
C181        C189   1.383       .  A
C182        C196   1.416       .  A
C182        C190   1.389       .  A
C183        C191   1.387       .  A
C183        C194   1.413       .  A
C184        C192   1.386       .  A
C184        C195   1.415       .  A
C185        C186   1.376       .  A
C185        H197   1.082       .  S
C186        H198   1.082       .  S
C187        C188   1.377       .  A
C187        H199   1.082   1_556  S
C188        H200   1.082       .  S
C189        C190   1.372   1_655  A
C189        H201   1.082       .  S
C190        H202   1.082       .  S
C191        C192   1.372   1_655  A
C191        H203   1.082       .  S
C192        H204   1.082       .  S
C193       C1001   1.487       .  S
C194        C818   1.472       .  S
C195        C828   1.496       .  S
C196       C1041   1.480       .  S
N207        C212   1.356       .  A
N207        C211   1.356       .  A
N207        H239   1.039       .  S
N208        C215   1.355   1_565  A
N208        C216   1.356       .  A
N209        C214   1.356       .  A
N209        C213   1.357       .  A
N209        H240   1.040       .  S
N210        C217   1.357   1_565  A
N210        C218   1.357       .  A
C211        C219   1.387       .  A
C211        C227   1.422   1_556  A
C212        C228   1.422       .  A
C212        C220   1.387       .  A
C213        C221   1.386       .  A
C213        C230   1.421   1_556  A
C214        C229   1.423       .  A
C214        C222   1.388       .  A
C215        C227   1.419       .  A
C215        C223   1.386       .  A
C216        C230   1.419       .  A
C216        C224   1.386       .  A
C217        C225   1.386       .  A
C217        C228   1.421       .  A
C218        C226   1.387       .  A
C218        C229   1.423       .  A
C219        C220   1.380       .  A
C219        H231   1.082       .  S
C220        H232   1.082       .  S
C221        C222   1.381       .  A
C221        H233   1.082       .  S
C222        H234   1.082       .  S
C223        C224   1.372   1_545  A
C223        H235   1.082       .  S
C224        H236   1.082       .  S
C225        C226   1.373   1_545  A
C225        H237   1.082       .  S
C226        H238   1.082       .  S
C227        C988   1.500       .  S
C228        C811   1.504       .  S
C229        C798   1.505       .  S
C230        C948   1.504       .  S
N241        C246   1.351       .  A
N241        C245   1.347       .  A
N241        H273   1.039       .  S
N242        C249   1.348       .  A
N242        C250   1.351   1_455  A
N243        C248   1.349       .  A
N243        C247   1.352       .  A
N243        H274   1.038       .  S
N244        C251   1.352       .  A
N244        C252   1.349   1_455  A
C245        C253   1.387       .  A
C245        C261   1.408       .  A
C246        C262   1.409   1_556  A
C246        C254   1.386       .  A
C247        C255   1.386       .  A
C247        C264   1.410       .  A
C248        C263   1.412   1_556  A
C248        C256   1.388       .  A
C249        C261   1.412       .  A
C249        C257   1.389       .  A
C250        C264   1.407       .  A
C250        C258   1.384       .  A
C251        C259   1.386       .  A
C251        C262   1.412       .  A
C252        C260   1.386       .  A
C252        C263   1.410       .  A
C253        C254   1.376       .  A
C253        H265   1.082       .  S
C254        H266   1.082   1_556  S
C255        C256   1.376       .  A
C255        H267   1.082       .  S
C256        H268   1.082       .  S
C257        C258   1.371   1_455  A
C257        H269   1.082       .  S
C258        H270   1.082       .  S
C259        C260   1.371   1_455  A
C259        H271   1.082       .  S
C260        H272   1.082       .  S
C261        C778   1.472       .  S
C262        C898   1.486       .  S
C263        C941   1.474       .  S
C264        C788   1.479       .  S
O275       Ni281   1.905       .  S
O275        C296   1.263       .  A
O276       Ni299   1.890       .  S
O276        C285   1.263       .  A
O277       Ni281   1.909       .  S
O277       Ni299   1.898       .  S
O277       Ni293   1.919       .  S
O277        H300   0.966       .  S
C278        C781   1.466       .  S
C278        O295   1.277       .  A
C278        O287   1.278       .  A
O279       Ni298   1.906       .  S
O279        C285   1.266       .  A
O280       Ni298   1.915       .  S
O280        C282   1.268       .  A
Ni281       O284   1.915       .  S
Ni281       O286   1.905       .  S
C282        C771   1.491       .  S
C282        O292   1.271       .  A
O283       Ni299   1.900       .  S
O283        C289   1.273       .  A
O284        C289   1.276       .  A
C285        C738   1.462       .  S
O286        C288   1.267       .  A
O287       Ni298   1.912       .  S
C288        C758   1.485       .  S
C288        O294   1.273       .  A
C289        C748   1.462       .  S
H290        O291   0.966       .  S
O291       Ni299   1.913       .  S
O291       Ni293   1.891       .  S
O291       Ni298   1.904       .  S
O292       Ni293   1.934       .  S
Ni293       O297   1.893       .  S
Ni293       O295   1.908       .  S
O294       Ni299   1.941       .  S
C296        C851   1.464       .  S
C296        O297   1.263       .  A
N301        C306   1.354       .  A
N301        C305   1.359   1_565  A
N301        H333   1.040       .  S
N302        C309   1.358   1_455  A
N302        C310   1.353       .  A
N303        C308   1.362       .  A
N303        C307   1.356   1_565  A
N303        H334   1.036       .  S
N304        C311   1.352   1_455  A
N304        C312   1.354       .  A
C305        C313   1.387       .  A
C305        C321   1.419       .  A
C306        C322   1.416       .  A
C306        C314   1.387       .  A
C307        C315   1.389       .  A
C307        C324   1.426       .  A
C308        C323   1.425       .  A
C308        C316   1.385       .  A
C309        C321   1.420       .  A
C309        C317   1.383       .  A
C310        C324   1.427       .  A
C310        C318   1.390       .  A
C311        C319   1.386       .  A
C311        C322   1.416       .  A
C312        C320   1.387       .  A
C312        C323   1.420       .  A
C313        C314   1.370   1_545  A
C313        H325   1.082       .  S
C314        H326   1.083       .  S
C315        C316   1.372   1_545  A
C315        H327   1.082       .  S
C316        H328   1.082       .  S
C317        C318   1.370   1_655  A
C317        H329   1.081       .  S
C318        H330   1.081       .  S
C319        C320   1.368   1_655  A
C319        H331   1.081       .  S
C320        H332   1.081       .  S
C321        C718   1.508       .  S
C322        C708   1.485       .  S
C323        C768   1.503       .  S
C324        C728   1.494       .  S
O335       Ni341   1.926       .  S
O335        C356   1.272       .  A
O336       Ni359   1.894       .  S
O336        C345   1.266       .  A
O337       Ni341   1.900       .  S
O337       Ni359   1.892       .  S
O337       Ni353   1.907       .  S
O337        H360   0.966       .  S
C338        C731   1.480       .  S
C338        O355   1.277       .  A
C338        O347   1.277       .  A
O339       Ni358   1.923       .  S
O339        C345   1.270       .  A
O340       Ni358   1.903       .  S
O340        C342   1.268       .  A
Ni341       O344   1.921       .  S
Ni341       O346   1.916       .  S
C342        C831   1.488       .  S
C342        O352   1.276       .  A
O343       Ni359   1.916       .  S
O343        C349   1.277       .  A
O344        C349   1.277       .  A
C345        C688   1.469       .  S
O346        C348   1.271       .  A
O347       Ni358   1.922       .  S
C348        C678   1.490       .  S
C348        O354   1.273       .  A
C349        C698   1.466       .  S
H350        O351   0.967       .  S
O351       Ni359   1.913       .  S
O351       Ni353   1.902       .  S
O351       Ni358   1.902       .  S
O352       Ni353   1.943       .  S
Ni353       O357   1.895       .  S
Ni353       O355   1.922       .  S
O354       Ni359   1.933       .  S
C356        C841   1.472       .  S
C356        O357   1.269       .  A
O361       Ni367   1.941       .  S
O361        C382   1.274       .  A
O362       Ni385   1.879       .  S
O362        C371   1.264       .  A
O363       Ni367   1.922       .  S
O363       Ni385   1.902       .  S
O363       Ni379   1.919       .  S
O363        H386   0.966       .  S
C364        C721   1.496       .  S
C364        O381   1.276       .  A
C364        O373   1.279       .  A
O365       Ni384   1.942       .  S
O365        C371   1.275       .  A
O366       Ni384   1.921       .  S
O366        C368   1.272       .  A
Ni367       O370   1.937       .  S
Ni367       O372   1.919       .  S
C368        C808   1.499       .  S
C368        O378   1.275       .  A
O369       Ni385   1.935       .  S
O369        C375   1.278       .  A
O370        C375   1.278       .  A
C371        C658   1.474       .  S
O372        C374   1.272       .  A
O373       Ni384   1.941       .  S
C374        C648   1.501       .  S
C374        O380   1.275       .  A
C375        C668   1.502       .  S
H376        O377   0.966       .  S
O377       Ni385   1.921       .  S
O377       Ni379   1.899       .  S
O377       Ni384   1.921       .  S
O378       Ni379   1.940       .  S
Ni379       O383   1.880       .  S
Ni379       O381   1.924       .  S
O380       Ni385   1.943       .  S
C382        C821   1.474       .  S
C382        O383   1.263       .  A
O387       Ni393   1.940       .  S
O387        C408   1.274       .  A
O388       Ni411   1.899       .  S
O388        C397   1.266       .  A
O389       Ni393   1.916       .  S
O389       Ni411   1.903       .  S
O389       Ni405   1.909       .  S
O389        H412   0.966       .  S
C390        C638   1.481       .  S
C390        O407   1.275       .  A
C390        O399   1.277       .  A
O391       Ni410   1.936       .  S
O391        C397   1.273       .  A
O392       Ni410   1.914       .  S
O392        C394   1.270       .  A
Ni393       O396   1.929       .  S
Ni393       O398   1.920       .  S
C394        C628   1.495       .  S
C394        O404   1.275       .  A
O395       Ni411   1.905       .  S
O395        C401   1.273       .  A
O396        C401   1.278       .  A
C397        C791   1.482       .  S
O398        C400   1.272       .  A
O399       Ni410   1.924       .  S
C400        C801   1.498       .  S
C400        O406   1.275       .  A
C401        C711   1.474       .  S
H402        O403   0.966       .  S
O403       Ni411   1.907       .  S
O403       Ni405   1.905       .  S
O403       Ni410   1.911       .  S
O404       Ni405   1.940       .  S
Ni405       O409   1.891       .  S
Ni405       O407   1.918       .  S
O406       Ni411   1.938       .  S
C408        C618   1.477       .  S
C408        O409   1.266       .  A
N413        C418   1.359       .  A
N413        C417   1.352       .  A
N413        H445   1.036       .  S
N414        C421   1.352       .  A
N414        C422   1.357       .  A
N415        C420   1.354       .  A
N415        C419   1.360       .  A
N415        H446   1.039       .  S
N416        C423   1.354       .  A
N416        C424   1.351       .  A
C417        C425   1.390       .  A
C417        C433   1.422       .  A
C418        C434   1.419       .  A
C418        C426   1.385       .  A
C419        C427   1.387       .  A
C419        C436   1.423       .  A
C420        C435   1.420       .  A
C420        C428   1.387       .  A
C421        C433   1.422       .  A
C421        C429   1.390       .  A
C422        C436   1.420       .  A
C422        C430   1.384       .  A
C423        C431   1.386       .  A
C423        C434   1.417       .  A
C424        C432   1.387       .  A
C424        C435   1.415       .  A
C425        C426   1.373       .  A
C425        H437   1.082       .  S
C426        H438   1.082       .  S
C427        C428   1.374       .  A
C427        H439   1.082       .  S
C428        H440   1.082       .  S
C429        C430   1.373       .  A
C429        H441   1.081       .  S
C430        H442   1.082       .  S
C431        C432   1.372       .  A
C431        H443   1.082       .  S
C432        H444   1.082       .  S
C433        C701   1.483       .  S
C434        C761   1.496       .  S
C435        C641   1.487       .  S
C436        C671   1.511       .  S
N447        C452   1.349       .  A
N447        C451   1.354       .  A
N447        H479   1.030       .  S
N448        C455   1.350       .  A
N448        C456   1.347       .  A
N449        C454   1.357       .  A
N449        C453   1.351       .  A
N449        H480   1.040       .  S
N450        C457   1.348       .  A
N450        C458   1.350       .  A
C451        C459   1.387       .  A
C451        C467   1.416       .  A
C452        C468   1.417       .  A
C452        C460   1.389       .  A
C453        C461   1.388       .  A
C453        C470   1.414       .  A
C454        C469   1.415       .  A
C454        C462   1.386       .  A
C455        C467   1.415       .  A
C455        C463   1.387       .  A
C456        C470   1.410       .  A
C456        C464   1.387       .  A
C457        C465   1.389       .  A
C457        C468   1.414       .  A
C458        C466   1.384       .  A
C458        C469   1.411       .  A
C459        C460   1.370       .  A
C459        H471   1.082       .  S
C460        H472   1.082       .  S
C461        C462   1.370       .  A
C461        H473   1.082       .  S
C462        H474   1.082       .  S
C463        C464   1.371       .  A
C463        H475   1.082       .  S
C464        H476   1.082       .  S
C465        C466   1.370       .  A
C465        H477   1.082       .  S
C466        H478   1.082       .  S
C467       C1031   1.483       .  S
C468        C881   1.470       .  S
C469        C931   1.492       .  S
C470        C981   1.474       .  S
N481        C486   1.357       .  A
N481        C485   1.357       .  A
N481        H513   1.039       .  S
N482        C489   1.357       .  A
N482        C490   1.358       .  A
N483        C488   1.356       .  A
N483        C487   1.358       .  A
N483        H514   1.039       .  S
N484        C491   1.357       .  A
N484        C492   1.356       .  A
C485        C493   1.387       .  A
C485        C501   1.421       .  A
C486        C502   1.421       .  A
C486        C494   1.387       .  A
C487        C495   1.387       .  A
C487        C504   1.423       .  A
C488        C503   1.422       .  A
C488        C496   1.387       .  A
C489        C501   1.423       .  A
C489        C497   1.386       .  A
C490        C504   1.424       .  A
C490        C498   1.387       .  A
C491        C499   1.386       .  A
C491        C502   1.421       .  A
C492        C500   1.387       .  A
C492        C503   1.423       .  A
C493        C494   1.377       .  A
C493        H505   1.082       .  S
C494        H506   1.082       .  S
C495        C496   1.379       .  A
C495        H507   1.082       .  S
C496        H508   1.082       .  S
C497        C498   1.373       .  A
C497        H509   1.082       .  S
C498        H510   1.082       .  S
C499        C500   1.373       .  A
C499        H511   1.082       .  S
C500        H512   1.082       .  S
C501        C631   1.504       .  S
C502        C911   1.503       .  S
C503        C971   1.502       .  S
C504        C651   1.509       .  S
N515        C520   1.351       .  A
N515        C519   1.349       .  A
N515        H547   1.038       .  S
N516        C523   1.347       .  A
N516        C524   1.349       .  A
N517        C522   1.346       .  A
N517        C521   1.351       .  A
N517        H548   1.039       .  S
N518        C525   1.351       .  A
N518        C526   1.349       .  A
C519        C527   1.389       .  A
C519        C535   1.412       .  A
C520        C536   1.409       .  A
C520        C528   1.385       .  A
C521        C529   1.386       .  A
C521        C538   1.408       .  A
C522        C537   1.407       .  A
C522        C530   1.388       .  A
C523        C535   1.406       .  A
C523        C531   1.386       .  A
C524        C538   1.409       .  A
C524        C532   1.386       .  A
C525        C533   1.384       .  A
C525        C536   1.408       .  A
C526        C534   1.388       .  A
C526        C537   1.412       .  A
C527        C528   1.375       .  A
C527        H539   1.082       .  S
C528        H540   1.082       .  S
C529        C530   1.375       .  A
C529        H541   1.082       .  S
C530        H542   1.083       .  S
C531        C532   1.372       .  A
C531        H543   1.082       .  S
C532        H544   1.082       .  S
C533        C534   1.369       .  A
C533        H545   1.082       .  S
C534        H546   1.082       .  S
C535        C921   1.468       .  S
C536        C621   1.480       .  S
C537        C751   1.472       .  S
C538        C861   1.479       .  S
N549        C554   1.347       .  A
N549        C553   1.350       .  A
N549        H581   1.037       .  S
N550        C557   1.344       .  A
N550        C558   1.345       .  A
N551        C556   1.345       .  A
N551        C555   1.345       .  A
N551        H582   1.038       .  S
N552        C559   1.347       .  A
N552        C560   1.349       .  A
C553        C561   1.385       .  A
C553        C569   1.408       .  A
C554        C570   1.410       .  A
C554        C562   1.388       .  A
C555        C563   1.386       .  A
C555        C572   1.401       .  A
C556        C571   1.401       .  A
C556        C564   1.388       .  A
C557        C569   1.404       .  A
C557        C565   1.388       .  A
C558        C572   1.399       .  A
C558        C566   1.385       .  A
C559        C567   1.387       .  A
C559        C570   1.407       .  A
C560        C568   1.385       .  A
C560        C571   1.405       .  A
C561        C562   1.377       .  A
C561        H573   1.082       .  S
C562        H574   1.082       .  S
C563        C564   1.372       .  A
C563        H575   1.082       .  S
C564        H576   1.082       .  S
C565        C566   1.368       .  A
C565        H577   1.082       .  S
C566        H578   1.082       .  S
C567        C568   1.373       .  A
C567        H579   1.082       .  S
C568        H580   1.082       .  S
C569       C1011   1.466       .  S
C570        C691   1.467       .  S
C571        C741   1.463       .  S
C572        C868   1.457       .  S
N583        C588   1.358       .  A
N583        C587   1.352       .  A
N583        H615   1.040       .  S
N584        C591   1.350       .  A
N584        C592   1.355       .  A
N585        C590   1.349       .  A
N585        C589   1.353       .  A
N585        H616   1.038       .  S
N586        C593   1.352       .  A
N586        C594   1.349       .  A
C587        C595   1.388       .  A
C587        C603   1.418       .  A
C588        C604   1.417       .  A
C588        C596   1.385       .  A
C589        C597   1.385       .  A
C589        C606   1.412       .  A
C590        C605   1.413       .  A
C590        C598   1.389       .  A
C591        C603   1.417       .  A
C591        C599   1.389       .  A
C592        C606   1.412       .  A
C592        C600   1.383       .  A
C593        C601   1.385       .  A
C593        C604   1.412       .  A
C594        C602   1.387       .  A
C594        C605   1.411       .  A
C595        C596   1.379       .  A
C595        H607   1.082       .  S
C596        H608   1.082       .  S
C597        C598   1.377       .  A
C597        H609   1.082       .  S
C598        H610   1.082       .  S
C599        C600   1.372       .  A
C599        H611   1.082       .  S
C600        H612   1.082       .  S
C601        C602   1.372       .  A
C601        H613   1.082       .  S
C602        H614   1.082       .  S
C603       C1021   1.484       .  S
C604        C681   1.497       .  S
C605        C661   1.471       .  S
C606        C961   1.490       .  S
C617        C618   1.407       .  A
C617        C622   1.400       .  A
C617        H623   1.083       .  S
C618        C619   1.406       .  A
C619        C620   1.392       .  A
C619        H624   1.083       .  S
C620        C621   1.400       .  A
C620        H625   1.083       .  S
C621        C622   1.403       .  A
C622        H626   1.083       .  S
C627        C628   1.409       .  A
C627        C632   1.403       .  A
C627        H633   1.083       .  S
C628        C629   1.409       .  A
C629        C630   1.405       .  A
C629        H634   1.083       .  S
C630        C631   1.407       .  A
C630        H635   1.083       .  S
C631        C632   1.406       .  A
C632        H636   1.083       .  S
C637        C638   1.408       .  A
C637        C642   1.403       .  A
C637        H643   1.083       .  S
C638        C639   1.405       .  A
C639        C640   1.393       .  A
C639        H644   1.083       .  S
C640        C641   1.400       .  A
C640        H645   1.083       .  S
C641        C642   1.406       .  A
C642        H646   1.083       .  S
C647        C648   1.411       .  A
C647        C652   1.408       .  A
C647        H653   1.083       .  S
C648        C649   1.409       .  A
C649        C650   1.404       .  A
C649        H654   1.083       .  S
C650        C651   1.407       .  A
C650        H655   1.083       .  S
C651        C652   1.408       .  A
C652        H656   1.083       .  S
C657        C658   1.406       .  A
C657        C662   1.399       .  A
C657        H663   1.083       .  S
C658        C659   1.407       .  A
C659        C660   1.388       .  A
C659        H664   1.083       .  S
C660        C661   1.396       .  A
C660        H665   1.084       .  S
C661        C662   1.402       .  A
C662        H666   1.083       .  S
C667        C668   1.410       .  A
C667        C672   1.403       .  A
C667        H673   1.083       .  S
C668        C669   1.410       .  A
C669        C670   1.409       .  A
C669        H674   1.083       .  S
C670        C671   1.410       .  A
C670        H675   1.083       .  S
C671        C672   1.406       .  A
C672        H676   1.083       .  S
C677        C678   1.409       .  A
C677        C682   1.406       .  A
C677        H683   1.083       .  S
C678        C679   1.406       .  A
C679        C680   1.399       .  A
C679        H684   1.083       .  S
C680        C681   1.405       .  A
C680        H685   1.083       .  S
C681        C682   1.405       .  A
C682        H686   1.083       .  S
C687        C688   1.404       .  A
C687        C692   1.390       .  A
C687        H693   1.083       .  S
C688        C689   1.408       .  A
C689        C690   1.394       .  A
C689        H694   1.083       .  S
C690        C691   1.397       .  A
C690        H695   1.083       .  S
C691        C692   1.400       .  A
C692        H696   1.084       .  S
C697        C698   1.401       .  A
C697        C702   1.394       .  A
C697        H703   1.084       .  S
C698        C699   1.404       .  A
C699        C700   1.398       .  A
C699        H704   1.083       .  S
C700        C701   1.403       .  A
C700        H705   1.083       .  S
C701        C702   1.403       .  A
C702        H706   1.083       .  S
C707        C708   1.403       .  A
C707        C712   1.396       .  A
C707        H713   1.083       .  S
C708        C709   1.402       .  A
C709        C710   1.396       .  A
C709        H714   1.083       .  S
C710        C711   1.406       .  A
C710        H715   1.083       .  S
C711        C712   1.404       .  A
C712        H716   1.083       .  S
C717        C718   1.408       .  A
C717        C722   1.404       .  A
C717        H723   1.083       .  S
C718        C719   1.407       .  A
C719        C720   1.405       .  A
C719        H724   1.083       .  S
C720        C721   1.409       .  A
C720        H725   1.083       .  S
C721        C722   1.408       .  A
C722        H726   1.083       .  S
C727        C728   1.405       .  A
C727        C732   1.400       .  A
C727        H733   1.083       .  S
C728        C729   1.404       .  A
C729        C730   1.397       .  A
C729        H734   1.083       .  S
C730        C731   1.406       .  A
C730        H735   1.083       .  S
C731        C732   1.406       .  A
C732        H736   1.083       .  S
C737        C738   1.403       .  A
C737        C742   1.388       .  A
C737        H743   1.083       .  S
C738        C739   1.406       .  A
C739        C740   1.393       .  A
C739        H744   1.083       .  S
C740        C741   1.397       .  A
C740        H745   1.083       .  S
C741        C742   1.399       .  A
C742        H746   1.084       .  S
C747        C748   1.402       .  A
C747        C752   1.390       .  A
C747        H753   1.083       .  S
C748        C749   1.404       .  A
C749        C750   1.391       .  A
C749        H754   1.083       .  S
C750        C751   1.400       .  A
C750        H755   1.083       .  S
C751        C752   1.402       .  A
C752        H756   1.084       .  S
C757        C758   1.406       .  A
C757        C762   1.405       .  A
C757        H763   1.083       .  S
C758        C759   1.407       .  A
C759        C760   1.401       .  A
C759        H764   1.083       .  S
C760        C761   1.403       .  A
C760        H765   1.083       .  S
C761        C762   1.407       .  A
C762        H766   1.083       .  S
C767        C768   1.406       .  A
C767        C772   1.401       .  A
C767        H773   1.083       .  S
C768        C769   1.406       .  A
C769        C770   1.406       .  A
C769        H774   1.083       .  S
C770        C771   1.409       .  A
C770        H775   1.083       .  S
C771        C772   1.406       .  A
C772        H776   1.083       .  S
C777        C778   1.402       .  A
C777        C782   1.392       .  A
C777        H783   1.083       .  S
C778        C779   1.400       .  A
C779        C780   1.391       .  A
C779        H784   1.083       .  S
C780        C781   1.405       .  A
C780        H785   1.083       .  S
C781        C782   1.403       .  A
C782        H786   1.083       .  S
C787        C788   1.400       .  A
C787        C792   1.396       .  A
C787        H793   1.083       .  S
C788        C789   1.401       .  A
C789        C790   1.399       .  A
C789        H794   1.083       .  S
C790        C791   1.408       .  A
C790        H795   1.083       .  S
C791        C792   1.407       .  A
C792        H796   1.083       .  S
C797        C798   1.407       .  A
C797        C802   1.404       .  A
C797        H803   1.083       .  S
C798        C799   1.406       .  A
C799        C800   1.405       .  A
C799        H804   1.083       .  S
C800        C801   1.410       .  A
C800        H805   1.083       .  S
C801        C802   1.409       .  A
C802        H806   1.083       .  S
C807        C808   1.411       .  A
C807        C812   1.407       .  A
C807        H813   1.083       .  S
C808        C809   1.408       .  A
C809        C810   1.403       .  A
C809        H814   1.083       .  S
C810        C811   1.406       .  A
C810        H815   1.083       .  S
C811        C812   1.407       .  A
C812        H816   1.083       .  S
C817        C818   1.401       .  A
C817        C822   1.398       .  A
C817        H823   1.083       .  S
C818        C819   1.397       .  A
C819        C820   1.389       .  A
C819        H824   1.084       .  S
C820        C821   1.407       .  A
C820        H825   1.083       .  S
C821        C822   1.407       .  A
C822        H826   1.083       .  S
C827        C828   1.403       .  A
C827        C832   1.397       .  A
C827        H833   1.083       .  S
C828        C829   1.407       .  A
C829        C830   1.405       .  A
C829        H834   1.083       .  S
C830        C831   1.407       .  A
C830        H835   1.083       .  S
C831        C832   1.408       .  A
C832        H836   1.083       .  S
C837        C838   1.399       .  A
C837        C842   1.398       .  A
C837        H843   1.083       .  S
C838        C839   1.399       .  A
C839        C840   1.389       .  A
C839        H844   1.084       .  S
C840        C841   1.403       .  A
C840        H845   1.083       .  S
C841        C842   1.410       .  A
C842        H846   1.083       .  S
C847        C848   1.398       .  A
C847        C852   1.388       .  A
C847        H853   1.084       .  S
C848        C849   1.398       .  A
C849        C850   1.393       .  A
C849        H854   1.083       .  S
C850        C851   1.407       .  A
C850        H855   1.083       .  S
C851        C852   1.403       .  A
C852        H856   1.083       .  S
C857        C858   1.406       .  A
C857        C862   1.392       .  A
C857        H863   1.083       .  S
C858        C859   1.407       .  A
C859        C860   1.399       .  A
C859        H864   1.083       .  S
C860        C861   1.403       .  A
C860        H865   1.083       .  S
C861        C862   1.400       .  A
C862        H866   1.083       .  S
C867        C868   1.399       .  A
C867        C872   1.390       .  A
C867        H873   1.083       .  S
C868        C869   1.395       .  A
C869        C870   1.386       .  A
C869        H874   1.083       .  S
C870        C871   1.405       .  A
C870        H875   1.083       .  S
C871        C872   1.403       .  A
C872        H876   1.083       .  S
C877        C878   1.403       .  A
C877        C882   1.394       .  A
C877        H883   1.083       .  S
C878        C879   1.401       .  A
C879        C880   1.388       .  A
C879        H884   1.084       .  S
C880        C881   1.400       .  A
C880        H885   1.084       .  S
C881        C882   1.401       .  A
C882        H886   1.083       .  S
C887        C888   1.405       .  A
C887        C892   1.387       .  A
C887        H893   1.083       .  S
C888        C889   1.404       .  A
C889        C890   1.392       .  A
C889        H894   1.083       .  S
C890        C891   1.398       .  A
C890        H895   1.083       .  S
C891        C892   1.396       .  A
C892        H896   1.084       .  S
C897        C898   1.402       .  A
C897        C902   1.397       .  A
C897        H903   1.083       .  S
C898        C899   1.404       .  A
C899        C900   1.399       .  A
C899        H904   1.083       .  S
C900        C901   1.406       .  A
C900        H905   1.083       .  S
C901        C902   1.408       .  A
C902        H906   1.083       .  S
C907        C908   1.409       .  A
C907        C912   1.404       .  A
C907        H913   1.083       .  S
C908        C909   1.409       .  A
C909        C910   1.402       .  A
C909        H914   1.083       .  S
C910        C911   1.405       .  A
C910        H915   1.083       .  S
C911        C912   1.407       .  A
C912        H916   1.083       .  S
C917        C918   1.407       .  A
C917        C922   1.390       .  A
C917        H923   1.083       .  S
C918        C919   1.405       .  A
C919        C920   1.395       .  A
C919        H924   1.083       .  S
C920        C921   1.400       .  A
C920        H925   1.083       .  S
C921        C922   1.397       .  A
C922        H926   1.083       .  S
C927        C928   1.407       .  A
C927        C932   1.397       .  A
C927        H933   1.083       .  S
C928        C929   1.407       .  A
C929        C930   1.400       .  A
C929        H934   1.083       .  S
C930        C931   1.405       .  A
C930        H935   1.083       .  S
C931        C932   1.403       .  A
C932        H936   1.083       .  S
C937        C938   1.404       .  A
C937        C942   1.394       .  A
C937        H943   1.083       .  S
C938        C939   1.406       .  A
C939        C940   1.394       .  A
C939        H944   1.083       .  S
C940        C941   1.400       .  A
C940        H945   1.083       .  S
C941        C942   1.401       .  A
C942        H946   1.083       .  S
C947        C948   1.405       .  A
C947        C952   1.404       .  A
C947        H953   1.083       .  S
C948        C949   1.408       .  A
C949        C950   1.404       .  A
C949        H954   1.083       .  S
C950        C951   1.408       .  A
C950        H955   1.083       .  S
C951        C952   1.410       .  A
C952        H956   1.083       .  S
C957        C958   1.409       .  A
C957        C962   1.405       .  A
C957        H963   1.083       .  S
C958        C959   1.407       .  A
C959        C960   1.398       .  A
C959        H964   1.083       .  S
C960        C961   1.402       .  A
C960        H965   1.083       .  S
C961        C962   1.404       .  A
C962        H966   1.083       .  S
C967        C968   1.409       .  A
C967        C972   1.403       .  A
C967        H973   1.083       .  S
C968        C969   1.409       .  A
C969        C970   1.403       .  A
C969        H974   1.083       .  S
C970        C971   1.406       .  A
C970        H975   1.083       .  S
C971        C972   1.406       .  A
C972        H976   1.083       .  S
C977        C978   1.404       .  A
C977        C982   1.392       .  A
C977        H983   1.083       .  S
C978        C979   1.403       .  A
C979        C980   1.391       .  A
C979        H984   1.083       .  S
C980        C981   1.402       .  A
C980        H985   1.083       .  S
C981        C982   1.401       .  A
C982        H986   1.083       .  S
C987        C988   1.403       .  A
C987        C992   1.400       .  A
C987        H993   1.083       .  S
C988        C989   1.408       .  A
C989        C990   1.404       .  A
C989        H994   1.083       .  S
C990        C991   1.408       .  A
C990        H995   1.083       .  S
C991        C992   1.409       .  A
C992        H996   1.083       .  S
C997        C998   1.408       .  A
C997       C1002   1.402       .  A
C997       H1003   1.083       .  S
C998        C999   1.409       .  A
C999       C1000   1.400       .  A
C999       H1004   1.083       .  S
C1000      C1001   1.401       .  A
C1000      H1005   1.083       .  S
C1001      C1002   1.403       .  A
C1002      H1006   1.083       .  S
C1007      C1008   1.406       .  A
C1007      C1012   1.392       .  A
C1007      H1013   1.083       .  S
C1008      C1009   1.404       .  A
C1009      C1010   1.392       .  A
C1009      H1014   1.083       .  S
C1010      C1011   1.399       .  A
C1010      H1015   1.083       .  S
C1011      C1012   1.399       .  A
C1012      H1016   1.083       .  S
C1017      C1018   1.403       .  A
C1017      C1022   1.396       .  A
C1017      H1023   1.083       .  S
C1018      C1019   1.406       .  A
C1019      C1020   1.394       .  A
C1019      H1024   1.083       .  S
C1020      C1021   1.402       .  A
C1020      H1025   1.083       .  S
C1021      C1022   1.405       .  A
C1022      H1026   1.083       .  S
C1027      C1028   1.405       .  A
C1027      C1032   1.393       .  A
C1027      H1033   1.083       .  S
C1028      C1029   1.404       .  A
C1029      C1030   1.400       .  A
C1029      H1034   1.083       .  S
C1030      C1031   1.405       .  A
C1030      H1035   1.083       .  S
C1031      C1032   1.400       .  A
C1032      H1036   1.083       .  S
C1037      C1038   1.406       .  A
C1037      C1042   1.394       .  A
C1037      H1043   1.083       .  S
C1038      C1039   1.405       .  A
C1039      C1040   1.395       .  A
C1039      H1044   1.083       .  S
C1040      C1041   1.402       .  A
C1040      H1045   1.083       .  S
C1041      C1042   1.402       .  A
C1042      H1046   1.083       .  S
C1047      C1048   1.404       .  A
C1047      C1052   1.392       .  A
C1047      H1053   1.083       .  S
C1048      C1049   1.404       .  A
C1049      C1050   1.392       .  A
C1049      H1054   1.083       .  S
C1050      C1051   1.399       .  A
C1050      H1055   1.083       .  S
C1051      C1052   1.399       .  A
C1052      H1056   1.083       .  S
C1057      C1058   1.405       .  A
C1057      C1062   1.396       .  A
C1057      H1063   1.083       .  S
C1058      C1059   1.400       .  A
C1059      C1060   1.391       .  A
C1059      H1064   1.083       .  S
C1060      C1061   1.402       .  A
C1060      H1065   1.083       .  S
C1061      C1062   1.401       .  A
C1062      H1066   1.083       .  S
C1067      C1068   1.403       .  A
C1067      C1072   1.400       .  A
C1067      H1073   1.083       .  S
C1068      C1069   1.402       .  A
C1069      C1070   1.397       .  A
C1069      H1074   1.083       .  S
C1070      C1071   1.407       .  A
C1070      H1075   1.083       .  S
C1071      C1072   1.408       .  A
C1072      H1076   1.083       .  S
C1077      C1078   1.402       .  A
C1077      C1082   1.395       .  A
C1077      H1083   1.083       .  S
C1078      C1079   1.402       .  A
C1079      C1080   1.392       .  A
C1079      H1084   1.083       .  S
C1080      C1081   1.404       .  A
C1080      H1085   1.083       .  S
C1081      C1082   1.407       .  A
C1082      H1086   1.083       .  S
C1087      C1088   1.406       .  A
C1087      C1092   1.400       .  A
C1087      H1093   1.083       .  S
C1088      C1089   1.401       .  A
C1089      C1090   1.395       .  A
C1089      H1094   1.083       .  S
C1090      C1091   1.405       .  A
C1090      H1095   1.083       .  S
C1091      C1092   1.403       .  A
C1092      H1096   1.083       .  S
