geometry optimzed in LAMMPS
_audit_creation_date              2020-12-01 
_audit_creation_method            'lammps2cif' 
_symmetry_space_group_name_H-M    'P1' 
_symmetry_Int_Tables_number       1 
_symmetry_cell_setting            triclinic 
loop_ 
_symmetry_equiv_pos_as_xyz 
  x,y,z 
_cell_length_a                    28.27438045 
_cell_length_b                    28.27556327012638 
_cell_length_c                    26.159598119991422 
_cell_angle_alpha                 90.06954913975986 
_cell_angle_beta                  90.08373710488216 
_cell_angle_gamma                 89.7764608814381 
loop_ 
_atom_site_label 
_atom_site_type_symbol 
_atom_site_fract_x 
_atom_site_fract_y 
_atom_site_fract_z 
_atom_site_charge 
O1          O  0.43405962  0.80260615  0.50301741    -0.71800
O2          O  0.56792226  0.80531911  0.00559146    -0.72000
O3          O  0.50007947  0.80412491  0.07635111    -0.71900
O4          O  0.50186240  0.80435902  0.43129065    -0.71900
O5          O  0.49944911  0.88123914  0.43138932    -0.71800
O6          O  0.49895870  0.88103894  0.07627827    -0.71900
O7          O  0.56659809  0.88220195  0.50413765    -0.71800
O8          O  0.43188511  0.87951913  0.00306171    -0.72000
V9          V  0.50096467  0.80563348  0.00392033     1.35200
V10         V  0.49925685  0.87953394  0.00378423     1.35200
C11         C  0.41024733  0.84044214  0.00287581     0.77400
C12         C  0.59004005  0.84401546  0.00572693     0.77500
C13         C  0.49948065  0.84261540  0.10087537     0.77400
C14         C  0.50056638  0.84285953  0.40673803     0.77300
O15         O  0.49920174  0.88124739  0.18111215    -0.71800
O16         O  0.49922462  0.88145920  0.32616488    -0.72000
O17         O  0.56647121  0.88208020  0.25318310    -0.71900
O18         O  0.43185487  0.88065845  0.25275056    -0.71900
O19         O  0.43326500  0.80378855  0.25405477    -0.71800
O20         O  0.56738854  0.80516959  0.25394329    -0.71900
O21         O  0.50061927  0.80456154  0.32626726    -0.71800
O22         O  0.50008213  0.80433231  0.18135513    -0.72000
V23         V  0.49920395  0.87989517  0.25349485     1.35200
V24         V  0.50030095  0.80599524  0.25386181     1.35200
C25         C  0.49955639  0.84271963  0.15667663     0.77400
C26         C  0.50015255  0.84300824  0.35082163     0.77500
C27         C  0.58970471  0.84377823  0.25318995     0.77400
C28         C  0.40973942  0.84186239  0.25286362     0.77300
O29         O  0.85700508  0.51579086  0.49672579    -0.71800
O30         O  0.85756147  0.38191592  0.00150257    -0.72000
O31         O  0.85752837  0.45111301  0.07145921    -0.71900
O32         O  0.85702310  0.44684489  0.42657435    -0.71900
O33         O  0.93379487  0.45117012  0.42649870    -0.71800
O34         O  0.93433088  0.44663031  0.07146849    -0.71900
O35         O  0.93423455  0.38146669  0.49612627    -0.68600
O36         O  0.93376890  0.51603643  0.00218643    -0.72000
V37         V  0.85877292  0.44886688  0.99904361     1.35200
V38         V  0.93261642  0.44879752  0.99899540     1.35200
C39         C  0.89515148  0.53866439  0.00003691     0.77400
C40         C  0.89582726  0.35878577  0.99887915     0.77500
C41         C  0.89597719  0.44927280  0.09604430     0.77400
C42         C  0.89532081  0.44915352  0.40193074     0.77300
O43         O  0.93426037  0.44985065  0.17673154    -0.71800
O44         O  0.93369396  0.44963089  0.32165267    -0.72000
O45         O  0.93325951  0.38247160  0.24890450    -0.71900
O46         O  0.93416813  0.51724720  0.24991084    -0.71900
O47         O  0.85726274  0.51757281  0.24909625    -0.71800
O48         O  0.85642033  0.38367534  0.24719172    -0.71900
O49         O  0.85678541  0.44980218  0.32122114    -0.71800
O50         O  0.85735342  0.45119074  0.17616702    -0.72000
V51         V  0.93238191  0.44984628  0.24926468     1.35200
V52         V  0.85848811  0.45058523  0.24858943     1.35200
C53         C  0.89591182  0.45018767  0.15187639     0.77400
C54         C  0.89520676  0.44953163  0.34603309     0.77500
C55         C  0.89452373  0.36024209  0.24691598     0.77400
C56         C  0.89565974  0.54021494  0.24954787     0.77300
O57         O  0.50110532  0.01121496  0.07397869    -0.71800
O58         O  0.50020844  0.01120588  0.42900124    -0.72000
O59         O  0.56789737  0.01135882  0.00080578    -0.71900
O60         O  0.43313535  0.01136425  0.50173359    -0.71900
O61         O  0.43322074  0.08824604  0.00277936    -0.71800
O62         O  0.56716685  0.08828333  0.50180510    -0.71900
O63         O  0.49979872  0.08811468  0.42925780    -0.71800
O64         O  0.50075439  0.08813092  0.07424576    -0.72000
V65         V  0.50054070  0.01274486  0.00142949     1.35200
V66         V  0.50021612  0.08665368  0.50184870     1.35200
C67         C  0.50122606  0.04966388  0.09867904     0.77400
C68         C  0.50015378  0.04966204  0.40453454     0.77500
C69         C  0.59027616  0.04999926  0.00147498     0.77400
C70         C  0.41036026  0.04996787  0.00304975     0.77300
O71         O  0.43350399  0.08658599  0.25118772    -0.71800
O72         O  0.56742873  0.08998140  0.25275942    -0.72000
O73         O  0.50093446  0.08815390  0.17919730    -0.71900
O74         O  0.49981626  0.08810862  0.32418576    -0.71900
O75         O  0.50215641  0.01122931  0.32390108    -0.71800
O76         O  0.50287850  0.01125622  0.17893326    -0.71900
O77         O  0.57001952  0.01315366  0.25148993    -0.71800
O78         O  0.43522071  0.00968074  0.25034008    -0.72000
V79         V  0.50048280  0.08666581  0.25174347     1.35200
V80         V  0.50257116  0.01278724  0.25130565     1.35200
C81         C  0.41159777  0.04777211  0.25032527     0.77400
C82         C  0.59157669  0.05231085  0.25236113     0.77500
C83         C  0.50176331  0.04970375  0.15449945     0.77400
C84         C  0.50069444  0.04964555  0.34863955     0.77300
O85         O  0.14209206  0.51283381  0.00016031    -0.71800
O86         O  0.14122571  0.37895719  0.49889269    -0.72000
O87         O  0.14141022  0.44665619  0.42641019    -0.71900
O88         O  0.14135369  0.44549164  0.07147322    -0.71900
O89         O  0.06444368  0.44720454  0.07110118    -0.71800
O90         O  0.06449984  0.44659699  0.42619436    -0.71900
O91         O  0.06428717  0.37934216  0.99901270    -0.71800
O92         O  0.06520560  0.51408327  0.49813704    -0.72000
V93         V  0.13998652  0.44595102  0.99905133     1.35200
V94         V  0.06607053  0.44673756  0.99862315     1.35200
C95         C  0.10398130  0.53622027  0.99975104     0.77400
C96         C  0.10280489  0.35641795  0.99968962     0.77500
C97         C  0.10292326  0.44715132  0.40170020     0.77400
C98         C  0.10284455  0.44655226  0.09584392     0.77300
O99         O  0.14037757  0.38069786  0.24952669    -0.71800
O100        O  0.14203809  0.51464859  0.24853570    -0.72000
O101        O  0.14121921  0.44793446  0.32127758    -0.71900
O102        O  0.14118432  0.44706351  0.17635569    -0.71900
O103        O  0.06427093  0.44793162  0.17604259    -0.71800
O104        O  0.06432319  0.44931272  0.32108249    -0.71900
O105        O  0.06516664  0.51617461  0.24719591    -0.71800
O106        O  0.06355517  0.38136493  0.24901368    -0.72000
V107        V  0.13965786  0.44764629  0.24884673     1.35200
V108        V  0.06577928  0.44873628  0.24845500     1.35200
C109        C  0.10188963  0.35811556  0.24947321     0.77400
C110        C  0.10402263  0.53824696  0.24745180     0.77500
C111        C  0.10279484  0.44825802  0.34578612     0.77400
C112        C  0.10275893  0.44717740  0.15164123     0.77300
O113        O  0.81705584  0.83218767  0.04602764    -0.71800
O114        O  0.95148557  0.83236111  0.04651561    -0.72000
O115        O  0.88374420  0.89943205  0.04790767    -0.71900
O116        O  0.88518059  0.76495128  0.04463173    -0.71900
O117        O  0.88253544  0.76669660  0.46174920    -0.71800
O118        O  0.88595460  0.90072736  0.46484028    -0.71900
O119        O  0.95123222  0.83166084  0.46339841    -0.71800
O120        O  0.81718892  0.83641697  0.46316680    -0.72000
V121        V  0.88429283  0.83221238  0.04470372     1.35200
V122        V  0.88422294  0.83375170  0.46492745     1.35200
C123        C  0.79422052  0.83582048  0.00455740     0.77400
C124        C  0.97413152  0.83168362  0.00490814     0.77500
C125        C  0.88482460  0.92285995  0.00679470     0.77400
C126        C  0.88428465  0.74283085  0.00255569     0.77300
O127        O  0.88152572  0.76720604  0.20435127    -0.71800
O128        O  0.88419613  0.90134193  0.20300964    -0.72000
O129        O  0.94994423  0.83266442  0.20081714    -0.71900
O130        O  0.81549057  0.83632821  0.20681282    -0.71900
O131        O  0.81878854  0.83387590  0.28965020    -0.71800
O132        O  0.95277276  0.83582522  0.28381543    -0.71900
O133        O  0.88457136  0.90195503  0.28612908    -0.71800
O134        O  0.88764223  0.76764679  0.28707039    -0.72000
V135        V  0.88277856  0.83432083  0.20533168     1.35200
V136        V  0.88580925  0.83481235  0.28505337     1.35200
C137        C  0.88519991  0.74446584  0.24577324     0.77400
C138        C  0.88460631  0.92441114  0.24437204     0.77500
C139        C  0.97413170  0.83407499  0.24148282     0.77400
C140        C  0.79415096  0.83568270  0.24932765     0.77300
O141        O  0.81701814  0.06453214  0.46556771    -0.71800
O142        O  0.95129895  0.06331892  0.46489891    -0.72000
O143        O  0.88376330  0.99724389  0.46564994    -0.71900
O144        O  0.88543193  0.13133417  0.46458964    -0.71900
O145        O  0.88391064  0.13218239  0.04764582    -0.71800
O146        O  0.88517145  0.99756842  0.04875329    -0.71900
O147        O  0.95174182  0.06509801  0.04799784    -0.71800
O148        O  0.81733682  0.06417172  0.04851988    -0.72000
V149        V  0.88426027  0.06422570  0.46682929     1.35200
V150        V  0.88451758  0.06483500  0.04664850     1.35200
C151        C  0.79418491  0.06343061  0.00713233     0.77400
C152        C  0.97430418  0.06386264  0.00631800     0.77500
C153        C  0.88459508  0.97462424  0.00723871     0.77400
C154        C  0.88543684  0.15461766  0.00585180     0.77300
O155        O  0.88859777  0.13305749  0.28495690    -0.71800
O156        O  0.88406832  0.99910586  0.28537058    -0.72000
O157        O  0.95310313  0.06391299  0.28438967    -0.71900
O158        O  0.81895779  0.06811088  0.28576781    -0.71900
O159        O  0.81806798  0.06354197  0.20289004    -0.71800
O160        O  0.95250766  0.06729357  0.20135898    -0.71900
O161        O  0.88688878  0.99866348  0.20230439    -0.71800
O162        O  0.88355624  0.13315635  0.20208162    -0.72000
V163        V  0.88608889  0.06610114  0.28348862     1.35200
V164        V  0.88524487  0.06580452  0.20369628     1.35200
C165        C  0.88725098  0.15597162  0.24355356     0.77400
C166        C  0.88520662  0.97612207  0.24396243     0.77500
C167        C  0.97561041  0.06545605  0.24274024     0.77400
C168        C  0.79563207  0.06452086  0.24466769     0.77300
O169        O  0.18368125  0.06236617  0.04524768    -0.71800
O170        O  0.04934634  0.06218989  0.04707900    -0.72000
O171        O  0.11709101  0.99491341  0.04682248    -0.71900
O172        O  0.11554858  0.12973892  0.04498350    -0.71900
O173        O  0.11637438  0.12812155  0.46215766    -0.71800
O174        O  0.11431058  0.99432908  0.46375942    -0.71900
O175        O  0.04837391  0.06279700  0.46397730    -0.71800
O176        O  0.18261131  0.05908323  0.46232589    -0.72000
V177        V  0.11647377  0.06230217  0.04448427     1.35200
V178        V  0.11550129  0.06120091  0.46471784     1.35200
C179        C  0.20604409  0.05928988  0.00353333     0.77400
C180        C  0.02607485  0.06293282  0.50581696     0.77500
C181        C  0.11580489  0.97183026  0.00535820     0.77400
C182        C  0.11465588  0.15198574  0.00297784     0.77300
O183        O  0.11674352  0.13225112  0.20516691    -0.71800
O184        O  0.11860373  0.99788635  0.20124853    -0.72000
O185        O  0.05077466  0.06482425  0.20177032    -0.71900
O186        O  0.18556132  0.06466463  0.20518525    -0.71900
O187        O  0.18355697  0.06115969  0.28800961    -0.71800
O188        O  0.04966711  0.06476832  0.28487437    -0.71900
O189        O  0.11534282  0.99605007  0.28425778    -0.71800
O190        O  0.11794681  0.13027584  0.28818509    -0.72000
V191        V  0.11804628  0.06497386  0.20490519     1.35200
V192        V  0.11667516  0.06316116  0.28467221     1.35200
C193        C  0.11631961  0.15409775  0.24735997     0.77400
C194        C  0.11685673  0.97418969  0.24210780     0.77500
C195        C  0.02742205  0.06503712  0.24297119     0.77400
C196        C  0.20754193  0.06169046  0.24733927     0.77300
O197        O  0.18194023  0.83043739  0.45928561    -0.71800
O198        O  0.04786185  0.83179935  0.46242882    -0.72000
O199        O  0.11535219  0.89800563  0.46272995    -0.71900
O200        O  0.11366973  0.76388837  0.45917295    -0.71900
O201        O  0.11616478  0.76218934  0.04212047    -0.71800
O202        O  0.11687508  0.89652708  0.04581078    -0.71900
O203        O  0.04940830  0.82984765  0.04550782    -0.71800
O204        O  0.18384863  0.82899207  0.04213962    -0.72000
V205        V  0.11484744  0.83095973  0.46254257     1.35200
V206        V  0.11660343  0.82935317  0.04230434     1.35200
C207        C  0.20593105  0.83038484  0.00010583     0.77400
C208        C  0.02586839  0.83105508  0.00439164     0.77500
C209        C  0.11604858  0.92005016  0.50478289     0.77400
C210        C  0.11362469  0.74016354  0.00009772     0.77300
O211        O  0.11536770  0.76510201  0.28031630    -0.71800
O212        O  0.11662852  0.89911933  0.28201845    -0.72000
O213        O  0.04910400  0.83299205  0.28149574    -0.71900
O214        O  0.18301111  0.83132284  0.28073998    -0.71900
O215        O  0.18296749  0.83271699  0.19773446    -0.71800
O216        O  0.04823373  0.83363667  0.19838552    -0.71900
O217        O  0.11609361  0.90017003  0.19891142    -0.71800
O218        O  0.11448355  0.76552853  0.19729562    -0.72000
V219        V  0.11605171  0.83211708  0.27944132     1.35200
V220        V  0.11554027  0.83291060  0.19961893     1.35200
C221        C  0.11379976  0.74240816  0.23870487     0.77400
C222        C  0.11653811  0.92242639  0.24086974     0.77500
C223        C  0.02588824  0.83356521  0.24021966     0.77400
C224        C  0.20590584  0.83269851  0.23933146     0.77300
C225        C  0.10545889  0.59043941  0.24621825    -0.00200
C226        C  0.08043804  0.61484387  0.20803270    -0.12000
C227        C  0.08337310  0.66425726  0.20395822     0.02100
C228        C  0.11106069  0.69007327  0.23932663    -0.00300
C229        C  0.13513447  0.66552198  0.27815249    -0.12000
C230        C  0.13295311  0.61619340  0.28153362     0.02000
H231        H  0.05921327  0.59517358  0.18080730     0.14900
H232        H  0.15603148  0.68495766  0.30586654     0.14900
C233        C  0.15798946  0.59292024  0.32265246     0.36600
C234        C  0.05629818  0.68755499  0.16439040     0.36500
N235        N  0.17793777  0.57427380  0.35566792    -0.43800
N236        N  0.03449428  0.70612114  0.13270266    -0.43800
C237        C  0.10272441  0.30575933  0.25039285    -0.00200
C238        C  0.13920851  0.28332428  0.27767968    -0.12000
C239        C  0.14390360  0.23409457  0.27769387     0.02100
C240        C  0.11240347  0.20619668  0.24890904    -0.00300
C241        C  0.07559867  0.22841880  0.22181027    -0.12000
C242        C  0.07004558  0.27777185  0.22294151     0.02000
H243        H  0.16431934  0.30442869  0.29915949     0.14900
H244        H  0.05086194  0.20709304  0.20008888     0.14900
C245        C  0.03183513  0.29870245  0.19396995     0.36600
C246        C  0.18245365  0.21347651  0.30617138     0.36500
N247        N  0.00118597  0.31536139  0.17069328    -0.43800
N248        N  0.21368579  0.19785564  0.32928001    -0.43800
C249        C  0.10518993  0.58825034  0.00118761    -0.00200
C250        C  0.08098101  0.61392495  0.46351940    -0.12000
C251        C  0.08366409  0.66337471  0.46189758     0.02100
C252        C  0.11034508  0.68792108  0.99924548    -0.00300
C253        C  0.13340011  0.66204483  0.03776968    -0.12000
C254        C  0.13141768  0.61262330  0.03873193     0.02000
H255        H  0.06063190  0.59522201  0.43474566     0.14900
H256        H  0.15345355  0.68046360  0.06698529     0.14900
C257        C  0.15537111  0.58778620  0.07954832     0.36600
C258        C  0.05745480  0.68785719  0.42248841     0.36500
N259        N  0.17444973  0.56793307  0.11234268    -0.43800
N260        N  0.03632392  0.70724094  0.39084472    -0.43800
C261        C  0.10347626  0.30443815  0.00179317    -0.00200
C262        C  0.09311281  0.27881998  0.45752052    -0.12000
C263        C  0.09678667  0.22943262  0.45686236     0.02100
C264        C  0.11075027  0.20457205  0.00158334    -0.00300
C265        C  0.12030175  0.23067740  0.04623799    -0.12000
C266        C  0.11726481  0.28018992  0.04643501     0.02000
H267        H  0.08314816  0.29758695  0.42296787     0.14900
H268        H  0.13087082  0.21251463  0.08093956     0.14900
C269        C  0.12874311  0.30555646  0.09271739     0.36600
C270        C  0.08567206  0.20558533  0.40965092     0.36500
N271        N  0.13816967  0.32612275  0.12958461    -0.43800
N272        N  0.07696922  0.18636052  0.37178521    -0.43800
C273        C  0.25994785  0.05754736  0.24912782    -0.00200
C274        C  0.28379162  0.03621084  0.20782359    -0.12000
C275        C  0.33310674  0.03032479  0.20854608     0.02100
C276        C  0.35953226  0.04778002  0.25014326    -0.00300
C277        C  0.33600731  0.06873231  0.29143166    -0.12000
C278        C  0.28668399  0.07272515  0.29194444     0.02000
H279        H  0.26381430  0.02332480  0.17526842     0.14900
H280        H  0.35636328  0.08175144  0.32368676     0.14900
C281        C  0.26498448  0.09274796  0.33700146     0.36600
C282        C  0.35587429  0.00713216  0.16590373     0.36500
N283        N  0.24810613  0.10818874  0.37370870    -0.43800
N284        N  0.37406773  0.98830669  0.13185005    -0.43800
C285        C  0.74341534  0.06079800  0.24589538    -0.00200
C286        C  0.71823572  0.08745523  0.28212216    -0.12000
C287        C  0.66886687  0.08489946  0.28509744     0.02100
C288        C  0.64380010  0.05439944  0.25205666    -0.00300
C289        C  0.66897521  0.02670559  0.21676607    -0.12000
C290        C  0.71833171  0.02992434  0.21308064     0.02000
H291        H  0.73718504  0.11075591  0.30792139     0.14900
H292        H  0.64992225  0.00318164  0.19129613     0.14900
C293        C  0.74231608  0.00033602  0.17617338     0.36600
C294        C  0.64493499  0.11276983  0.32353904     0.36500
N295        N  0.76141589  0.97674255  0.14641923    -0.43800
N296        N  0.62587553  0.13501481  0.35449894    -0.43800
C297        C  0.25833805  0.05561689  0.00324587    -0.00200
C298        C  0.28419632  0.08012567  0.04060475    -0.12000
C299        C  0.33369188  0.07853016  0.04122737     0.02100
C300        C  0.35819647  0.05079136  0.00492144    -0.00300
C301        C  0.33245514  0.02484742  0.46872238    -0.12000
C302        C  0.28294834  0.02753210  0.46712889     0.02000
H303        H  0.26571554  0.10136331  0.06884163     0.14900
H304        H  0.35113364  0.00345585  0.44076522     0.14900
C305        C  0.25832591  0.00081385  0.42836858     0.36600
C306        C  0.35850061  0.10487360  0.08020817     0.36500
N307        N  0.23835732  0.97999030  0.39701025    -0.43800
N308        N  0.37834512  0.12592875  0.11149950    -0.43800
C309        C  0.64225313  0.05103163  0.00309210    -0.00200
C310        C  0.66419399  0.07189780  0.04543831    -0.12000
C311        C  0.71345891  0.07579846  0.04812515     0.02100
C312        C  0.74175883  0.05981027  0.00690706    -0.00300
C313        C  0.71940971  0.03880493  0.46444987    -0.12000
C314        C  0.67012622  0.03380722  0.46255872     0.02000
H315        H  0.64263831  0.08505721  0.07671461     0.14900
H316        H  0.74049987  0.02578287  0.43278263     0.14900
C317        C  0.64884792  0.01230044  0.41805584     0.36600
C318        C  0.73338344  0.09718713  0.09332603     0.36500
N319        N  0.63178344  0.99508512  0.38239325    -0.43800
N320        N  0.74858395  0.11409838  0.13009904    -0.43800
C321        C  0.89350315  0.30806474  0.24426163    -0.00200
C322        C  0.92370041  0.28187828  0.27607014    -0.12000
C323        C  0.92185054  0.23239267  0.27674095     0.02100
C324        C  0.89045455  0.20819104  0.24380847    -0.00300
C325        C  0.86143244  0.23438137  0.21075393    -0.12000
C326        C  0.86213650  0.28391395  0.21127114     0.02000
H327        H  0.94793718  0.30016290  0.30140226     0.14900
H328        H  0.83723777  0.21608413  0.18547072     0.14900
C329        C  0.83071576  0.30909351  0.17718023     0.36600
C330        C  0.95282494  0.20726508  0.31123734     0.36500
N331        N  0.80535767  0.32940532  0.15017823    -0.43800
N332        N  0.97718870  0.18678003  0.33908546    -0.43800
C333        C  0.89485006  0.59233911  0.24857261    -0.00200
C334        C  0.86861134  0.61491696  0.21012214    -0.12000
C335        C  0.86532657  0.66428152  0.20807006     0.02100
C336        C  0.88768504  0.69205560  0.24599803    -0.00300
C337        C  0.91362292  0.66924161  0.28482902    -0.12000
C338        C  0.91777579  0.61981873  0.28607042     0.02000
H339        H  0.85080514  0.59380274  0.18132506     0.14900
H340        H  0.93107584  0.69007779  0.31409070     0.14900
C341        C  0.94410410  0.59810654  0.32724477     0.36600
C342        C  0.83758674  0.68519629  0.16748981     0.36500
N343        N  0.96512169  0.58079205  0.36034197    -0.43800
N344        N  0.81541341  0.70191136  0.13491465    -0.43800
C345        C  0.88826422  0.20681647  0.00492506    -0.00200
C346        C  0.92138733  0.22852173  0.47259817    -0.12000
C347        C  0.92527564  0.27796013  0.47046173     0.02100
C348        C  0.89497746  0.30648638  0.00044064    -0.00300
C349        C  0.86163013  0.28467318  0.03218614    -0.12000
C350        C  0.85836626  0.23542984  0.03506674     0.02000
H351        H  0.94441995  0.20677787  0.44912508     0.14900
H352        H  0.83788531  0.30629050  0.05486145     0.14900
C353        C  0.82225880  0.21554127  0.06725502     0.36600
C354        C  0.95885964  0.29840785  0.43541352     0.36500
N355        N  0.79278266  0.20049800  0.09305059    -0.43800
N356        N  0.98555954  0.31481125  0.40709222    -0.43800
C357        C  0.89407160  0.59065944  0.00087667    -0.00200
C358        C  0.87166668  0.61427058  0.46054651    -0.12000
C359        C  0.86827827  0.66361609  0.45997544     0.02100
C360        C  0.88657453  0.69035544  0.00127295    -0.00300
C361        C  0.90859652  0.66633998  0.04205500    -0.12000
C362        C  0.91287841  0.61692085  0.04189789     0.02000
H363        H  0.85703165  0.59397287  0.42907414     0.14900
H364        H  0.92297984  0.68620936  0.07394483     0.14900
C365        C  0.93511790  0.59385692  0.08498542     0.36600
C366        C  0.84501808  0.68526591  0.41678216     0.36500
N367        N  0.95285074  0.57535555  0.11953582    -0.43800
N368        N  0.82652593  0.70183524  0.38160080    -0.43800
C369        C  0.35760042  0.84060466  0.25059675    -0.00200
C370        C  0.33393188  0.86622627  0.21232503    -0.12000
C371        C  0.28469611  0.86293996  0.20651942     0.02100
C372        C  0.25824188  0.83465054  0.24057189    -0.00300
C373        C  0.28206854  0.80977536  0.27933389    -0.12000
C374        C  0.33124921  0.81226803  0.28437486     0.02000
H375        H  0.35411097  0.88793623  0.18612051     0.14900
H376        H  0.26211697  0.78831295  0.30597406     0.14900
C377        C  0.35367278  0.78688600  0.32577774     0.36600
C378        C  0.26230563  0.88987722  0.16625797     0.36500
N379        N  0.37162305  0.76672091  0.35908017    -0.43800
N380        N  0.24456560  0.91141206  0.13382603    -0.43800
C381        C  0.64178565  0.84369243  0.25252309    -0.00200
C382        C  0.66604052  0.82076642  0.29211048    -0.12000
C383        C  0.71551259  0.81855028  0.29259906     0.02100
C384        C  0.74167164  0.83797927  0.25158420    -0.00300
C385        C  0.71703625  0.86080580  0.21178894    -0.12000
C386        C  0.66757912  0.86452496  0.21244233     0.02000
H387        H  0.64617492  0.80498360  0.32314704     0.14900
H388        H  0.73647762  0.87635121  0.18033897     0.14900
C389        C  0.64400632  0.88859753  0.17087105     0.36600
C390        C  0.73796447  0.79567642  0.33556044     0.36500
N391        N  0.62510261  0.90784482  0.13754212    -0.43800
N392        N  0.75527526  0.77775930  0.37067257    -0.43800
C393        C  0.35828328  0.83859629  0.00272788    -0.00200
C394        C  0.33363719  0.85271248  0.45886430    -0.12000
C395        C  0.28424535  0.84921999  0.45638930     0.02100
C396        C  0.25851877  0.83253308  0.99923726    -0.00300
C397        C  0.28369615  0.81868263  0.04322427    -0.12000
C398        C  0.33312442  0.82095498  0.04495057     0.02000
H399        H  0.35315486  0.86567258  0.42608629     0.14900
H400        H  0.26479917  0.80559144  0.07633231     0.14900
C401        C  0.35737460  0.80537379  0.09058960     0.36600
C402        C  0.26129623  0.86350764  0.40954085     0.36500
N403        N  0.37699665  0.79269670  0.12695591    -0.43800
N404        N  0.24302614  0.87480968  0.37185645    -0.43800
C405        C  0.64213243  0.84406171  0.00747055    -0.00200
C406        C  0.66721175  0.86840031  0.46965515    -0.12000
C407        C  0.71669034  0.86594275  0.46756431     0.02100
C408        C  0.74192490  0.83951880  0.00472901    -0.00300
C409        C  0.71664997  0.81666231  0.04364252    -0.12000
C410        C  0.66718974  0.81824129  0.04492401     0.02000
H411        H  0.64800964  0.88838468  0.44089322     0.14900
H412        H  0.73554541  0.79677318  0.07270182     0.14900
C413        C  0.64298328  0.79398247  0.08575309     0.36600
C414        C  0.74043434  0.89165036  0.42746734     0.36500
N415        N  0.62366161  0.77472439  0.11863067    -0.43800
N416        N  0.75923982  0.91219157  0.39514952    -0.43800
O417        O  0.43405958  0.80260613  0.00301730    -0.71800
O418        O  0.56792226  0.80531902  0.50559140    -0.72000
O419        O  0.50007965  0.80412478  0.57635105    -0.71900
O420        O  0.50186247  0.80435906  0.93129075    -0.71900
O421        O  0.49944889  0.88123916  0.93138937    -0.71800
O422        O  0.49895885  0.88103883  0.57627830    -0.71900
O423        O  0.56659797  0.88220204  0.00413757    -0.71800
O424        O  0.43188526  0.87951914  0.50306159    -0.72000
V425        V  0.50096471  0.80563343  0.50392028     1.35200
V426        V  0.49925700  0.87953389  0.50378422     1.35200
C427        C  0.41024741  0.84044218  0.50287586     0.77400
C428        C  0.59004010  0.84401533  0.50572694     0.77500
C429        C  0.49948078  0.84261525  0.60087536     0.77400
C430        C  0.50056630  0.84285955  0.90673812     0.77300
O431        O  0.49920165  0.88124713  0.68111221    -0.71800
O432        O  0.49922444  0.88145912  0.82616493    -0.72000
O433        O  0.56647108  0.88207994  0.75318328    -0.71900
O434        O  0.43185475  0.88065837  0.75275052    -0.71900
O435        O  0.43326484  0.80378846  0.75405481    -0.71800
O436        O  0.56738837  0.80516932  0.75394327    -0.71900
O437        O  0.50061913  0.80456147  0.82626739    -0.71800
O438        O  0.50008198  0.80433205  0.68135517    -0.72000
V439        V  0.49920383  0.87989500  0.75349490     1.35200
V440        V  0.50030078  0.80599507  0.75386189     1.35200
C441        C  0.49955634  0.84271938  0.65667667     0.77400
C442        C  0.50015241  0.84300819  0.85082173     0.77500
C443        C  0.58970457  0.84377795  0.75319000     0.77400
C444        C  0.40973927  0.84186232  0.75286360     0.77300
O445        O  0.85700512  0.51579107  0.99672595    -0.71800
O446        O  0.85756161  0.38191568  0.50150265    -0.72000
O447        O  0.85752852  0.45111282  0.57145923    -0.71900
O448        O  0.85702313  0.44684526  0.92657437    -0.71900
O449        O  0.93379494  0.45117022  0.92649876    -0.71800
O450        O  0.93433104  0.44663035  0.57146840    -0.71900
O451        O  0.93423442  0.38146682  0.99612635    -0.68600
O452        O  0.93376885  0.51603627  0.50218629    -0.72000
V453        V  0.85877294  0.44886664  0.49904360     1.35200
V454        V  0.93261645  0.44879741  0.49899531     1.35200
C455        C  0.89515145  0.53866420  0.50003675     0.77400
C456        C  0.89582743  0.35878559  0.49887915     0.77500
C457        C  0.89597740  0.44927280  0.59604427     0.77400
C458        C  0.89532088  0.44915371  0.90193077     0.77300
O459        O  0.93426074  0.44985076  0.67673155    -0.71800
O460        O  0.93369412  0.44963098  0.82165274    -0.72000
O461        O  0.93325983  0.38247168  0.74890457    -0.71900
O462        O  0.93416837  0.51724732  0.74991100    -0.71900
O463        O  0.85726298  0.51757287  0.74909612    -0.71800
O464        O  0.85642068  0.38367546  0.74719152    -0.71900
O465        O  0.85678555  0.44980226  0.82122105    -0.71800
O466        O  0.85735378  0.45119084  0.67616696    -0.72000
V467        V  0.93238220  0.44984639  0.74926474     1.35200
V468        V  0.85848840  0.45058531  0.74858933     1.35200
C469        C  0.89591217  0.45018776  0.65187637     0.77400
C470        C  0.89520687  0.44953173  0.84603309     0.77500
C471        C  0.89452405  0.36024219  0.74691587     0.77400
C472        C  0.89565995  0.54021504  0.74954790     0.77300
O473        O  0.50110523  0.01121501  0.57397878    -0.71800
O474        O  0.50020868  0.01120587  0.92900120    -0.72000
O475        O  0.56789720  0.01135876  0.50080570    -0.71900
O476        O  0.43313555  0.01136416  0.00173341    -0.71900
O477        O  0.43322066  0.08824614  0.50277950    -0.71800
O478        O  0.56716698  0.08828338  0.00180494    -0.71900
O479        O  0.49979889  0.08811465  0.92925773    -0.71800
O480        O  0.50075426  0.08813096  0.57424585    -0.72000
V481        V  0.50054051  0.01274487  0.50142955     1.35200
V482        V  0.50021625  0.08665367  0.00184861     1.35200
C483        C  0.50122598  0.04966394  0.59867914     0.77400
C484        C  0.50015397  0.04966201  0.90453451     0.77500
C485        C  0.59027601  0.04999919  0.50147502     0.77400
C486        C  0.41036013  0.04996801  0.50304995     0.77300
O487        O  0.43350407  0.08658604  0.75118791    -0.71800
O488        O  0.56742878  0.08998136  0.75275933    -0.72000
O489        O  0.50093441  0.08815395  0.67919741    -0.71900
O490        O  0.49981630  0.08810858  0.82418580    -0.71900
O491        O  0.50215649  0.01122928  0.82390110    -0.71800
O492        O  0.50287849  0.01125628  0.67893333    -0.71900
O493        O  0.57001957  0.01315361  0.75148983    -0.71800
O494        O  0.43522076  0.00968080  0.75034023    -0.72000
V495        V  0.50048285  0.08666582  0.75174354     1.35200
V496        V  0.50257120  0.01278725  0.75130568     1.35200
C497        C  0.41159784  0.04777217  0.75032546     0.77400
C498        C  0.59157673  0.05231080  0.75236098     0.77500
C499        C  0.50176327  0.04970382  0.65449954     0.77400
C500        C  0.50069451  0.04964551  0.84863957     0.77300
O501        O  0.14209230  0.51283386  0.50016031    -0.71800
O502        O  0.14122572  0.37895714  0.99889281    -0.72000
O503        O  0.14141028  0.44665621  0.92641027    -0.71900
O504        O  0.14135392  0.44549171  0.57147313    -0.71900
O505        O  0.06444391  0.44720499  0.57110119    -0.71800
O506        O  0.06449990  0.44659705  0.92619434    -0.71900
O507        O  0.06428718  0.37934234  0.49901300    -0.71800
O508        O  0.06520539  0.51408311  0.99813725    -0.72000
V509        V  0.13998661  0.44595107  0.49905124     1.35200
V510        V  0.06607062  0.44673773  0.49862318     1.35200
C511        C  0.10398155  0.53622038  0.49975091     0.77400
C512        C  0.10280486  0.35641807  0.49968974     0.77500
C513        C  0.10292337  0.44715140  0.90170023     0.77400
C514        C  0.10284481  0.44655259  0.59584387     0.77300
O515        O  0.14037772  0.38069800  0.74952677    -0.71800
O516        O  0.14203829  0.51464876  0.74853583    -0.72000
O517        O  0.14121932  0.44793458  0.82127764    -0.71900
O518        O  0.14118456  0.44706370  0.67635571    -0.71900
O519        O  0.06427116  0.44793193  0.67604252    -0.71800
O520        O  0.06432332  0.44931286  0.82108246    -0.71900
O521        O  0.06516684  0.51617482  0.74719600    -0.71800
O522        O  0.06355532  0.38136518  0.74901344    -0.72000
V523        V  0.13965804  0.44764645  0.74884679     1.35200
V524        V  0.06577946  0.44873650  0.74845495     1.35200
C525        C  0.10188973  0.35811575  0.74947309     0.77400
C526        C  0.10402284  0.53824716  0.74745192     0.77500
C527        C  0.10279493  0.44825813  0.84578614     0.77400
C528        C  0.10275919  0.44717770  0.65164120     0.77300
O529        O  0.81705584  0.83218741  0.54602779    -0.71800
O530        O  0.95148556  0.83236097  0.54651549    -0.72000
O531        O  0.88374408  0.89943189  0.54790777    -0.71900
O532        O  0.88518069  0.76495104  0.54463158    -0.71900
O533        O  0.88253557  0.76669682  0.96174934    -0.71800
O534        O  0.88595469  0.90072755  0.96484017    -0.71900
O535        O  0.95123223  0.83166105  0.96339852    -0.71800
O536        O  0.81718894  0.83641718  0.96316665    -0.72000
V537        V  0.88429283  0.83221217  0.54470373     1.35200
V538        V  0.88422300  0.83375189  0.96492744     1.35200
C539        C  0.79422052  0.83582019  0.50455755     0.77400
C540        C  0.97413152  0.83168348  0.50490802     0.77500
C541        C  0.88482445  0.92285978  0.50679481     0.77400
C542        C  0.88428466  0.74283061  0.50255553     0.77300
O543        O  0.88152565  0.76720608  0.70435135    -0.71800
O544        O  0.88419593  0.90134196  0.70300946    -0.72000
O545        O  0.94994406  0.83266459  0.70081711    -0.71900
O546        O  0.81549042  0.83632804  0.70681281    -0.71900
O547        O  0.81878841  0.83387596  0.78965022    -0.71800
O548        O  0.95277264  0.83582540  0.78381541    -0.71900
O549        O  0.88457121  0.90195520  0.78612889    -0.71800
O550        O  0.88764211  0.76764690  0.78707047    -0.72000
V551        V  0.88277841  0.83432085  0.70533165     1.35200
V552        V  0.88580912  0.83481248  0.78505335     1.35200
C553        C  0.88519986  0.74446592  0.74577335     0.77400
C554        C  0.88460615  0.92441125  0.74437178     0.77500
C555        C  0.97413155  0.83407525  0.74148276     0.77400
C556        C  0.79415082  0.83568259  0.74932765     0.77300
O557        O  0.81701824  0.06453227  0.96556754    -0.71800
O558        O  0.95129903  0.06331911  0.96489869    -0.72000
O559        O  0.88376343  0.99724404  0.96564984    -0.71900
O560        O  0.88543186  0.13133433  0.96458943    -0.71900
O561        O  0.88391052  0.13218224  0.54764602    -0.71800
O562        O  0.88517128  0.99756826  0.54875337    -0.71900
O563        O  0.95174166  0.06509775  0.54799806    -0.71800
O564        O  0.81733668  0.06417165  0.54852005    -0.72000
V565        V  0.88426034  0.06422585  0.96682912     1.35200
V566        V  0.88451744  0.06483484  0.54664868     1.35200
C567        C  0.79418479  0.06343047  0.50713249     0.77400
C568        C  0.97430405  0.06386241  0.50631827     0.77500
C569        C  0.88459491  0.97462408  0.50723879     0.77400
C570        C  0.88543684  0.15461750  0.50585200     0.77300
O571        O  0.88859788  0.13305761  0.78495661    -0.71800
O572        O  0.88406821  0.99910601  0.78537018    -0.72000
O573        O  0.95310313  0.06391307  0.78438937    -0.71900
O574        O  0.81895776  0.06811099  0.78576749    -0.71900
O575        O  0.81806798  0.06354227  0.70288971    -0.71800
O576        O  0.95250768  0.06729361  0.70135869    -0.71900
O577        O  0.88688864  0.99866360  0.70230398    -0.71800
O578        O  0.88355641  0.13315646  0.70208133    -0.72000
V579        V  0.88608889  0.06610126  0.78348830     1.35200
V580        V  0.88524488  0.06580467  0.70369596     1.35200
C581        C  0.88725116  0.15597173  0.74355327     0.77400
C582        C  0.88520647  0.97612220  0.74396206     0.77500
C583        C  0.97561042  0.06545612  0.74273995     0.77400
C584        C  0.79563205  0.06452102  0.74466735     0.77300
O585        O  0.18368111  0.06236645  0.54524797    -0.71800
O586        O  0.04934617  0.06218989  0.54707935    -0.72000
O587        O  0.11709097  0.99491350  0.54682274    -0.71900
O588        O  0.11554839  0.12973906  0.54498393    -0.71900
O589        O  0.11637463  0.12812145  0.96215725    -0.71800
O590        O  0.11431067  0.99432893  0.96375916    -0.71900
O591        O  0.04837406  0.06279704  0.96397695    -0.71800
O592        O  0.18261148  0.05908302  0.96232558    -0.72000
V593        V  0.11647363  0.06230229  0.54448462     1.35200
V594        V  0.11550146  0.06120079  0.96471749     1.35200
C595        C  0.20604394  0.05929013  0.50353362     0.77400
C596        C  0.02607500  0.06293294  0.00581664     0.77500
C597        C  0.11580483  0.97183038  0.50535843     0.77400
C598        C  0.11465569  0.15198586  0.50297822     0.77300
O599        O  0.11674365  0.13225123  0.70516671    -0.71800
O600        O  0.11860391  0.99788645  0.70124836    -0.72000
O601        O  0.05077474  0.06482434  0.70177008    -0.71900
O602        O  0.18556138  0.06466475  0.70518520    -0.71900
O603        O  0.18355691  0.06116004  0.78800956    -0.71800
O604        O  0.04966706  0.06476839  0.78487414    -0.71900
O605        O  0.11534278  0.99605024  0.78425761    -0.71800
O606        O  0.11794661  0.13027598  0.78818490    -0.72000
V607        V  0.11804637  0.06497396  0.70490503     1.35200
V608        V  0.11667509  0.06316133  0.78467205     1.35200
C609        C  0.11631957  0.15409788  0.74735976     0.77400
C610        C  0.11685678  0.97418983  0.74210766     0.77500
C611        C  0.02742206  0.06503720  0.74297093     0.77400
C612        C  0.20754193  0.06169071  0.74733925     0.77300
O613        O  0.18194023  0.83043736  0.95928544    -0.71800
O614        O  0.04786183  0.83179934  0.96242886    -0.72000
O615        O  0.11535231  0.89800553  0.96272977    -0.71900
O616        O  0.11366977  0.76388822  0.95917296    -0.71900
O617        O  0.11616480  0.76218941  0.54212045    -0.71800
O618        O  0.11687505  0.89652716  0.54581095    -0.71900
O619        O  0.04940827  0.82984774  0.54550778    -0.71800
O620        O  0.18384866  0.82899217  0.54213979    -0.72000
V621        V  0.11484745  0.83095964  0.96254248     1.35200
V622        V  0.11660341  0.82935324  0.54230442     1.35200
C623        C  0.20593107  0.83038487  0.50010598     0.77400
C624        C  0.02586839  0.83105506  0.50439158     0.77500
C625        C  0.11604865  0.92005006  0.00478270     0.77400
C626        C  0.11362472  0.74016365  0.50009767     0.77300
O627        O  0.11536756  0.76510228  0.78031628    -0.71800
O628        O  0.11662838  0.89911957  0.78201844    -0.72000
O629        O  0.04910386  0.83299243  0.78149562    -0.71900
O630        O  0.18301094  0.83132314  0.78074005    -0.71900
O631        O  0.18296737  0.83271709  0.69773452    -0.71800
O632        O  0.04823358  0.83363686  0.69838540    -0.71900
O633        O  0.11609350  0.90017018  0.69891139    -0.71800
O634        O  0.11448341  0.76552874  0.69729559    -0.72000
V635        V  0.11605155  0.83211736  0.77944129     1.35200
V636        V  0.11554014  0.83291078  0.69961890     1.35200
C637        C  0.11379970  0.74240840  0.73870486     0.77400
C638        C  0.11653805  0.92242656  0.74086968     0.77500
C639        C  0.02588809  0.83356555  0.74021956     0.77400
C640        C  0.20590569  0.83269868  0.73933153     0.77300
C641        C  0.10545906  0.59043961  0.74621832    -0.00200
C642        C  0.08043797  0.61484406  0.70803297    -0.12000
C643        C  0.08337304  0.66425744  0.70395840     0.02100
C644        C  0.11106080  0.69007349  0.73932662    -0.00300
C645        C  0.13513494  0.66552219  0.77815221    -0.12000
C646        C  0.13295362  0.61619361  0.78153335     0.02000
H647        H  0.05921301  0.59517376  0.68080770     0.14900
H648        H  0.15603220  0.68495782  0.80586608     0.14900
C649        C  0.15799040  0.59292045  0.82265186     0.36600
C650        C  0.05629796  0.68755513  0.66439070     0.36500
N651        N  0.17793912  0.57427411  0.85566711    -0.43800
N652        N  0.03449380  0.70612125  0.63270314    -0.43800
C653        C  0.10272437  0.30575951  0.75039274    -0.00200
C654        C  0.13920833  0.28332442  0.77767966    -0.12000
C655        C  0.14390339  0.23409471  0.77769381     0.02100
C656        C  0.11240339  0.20619682  0.74890882    -0.00300
C657        C  0.07559868  0.22841898  0.72180996    -0.12000
C658        C  0.07004555  0.27777205  0.72294134     0.02000
H659        H  0.16431909  0.30442882  0.79915960     0.14900
H660        H  0.05086206  0.20709326  0.70008841     0.14900
C661        C  0.03183513  0.29870265  0.69396977     0.36600
C662        C  0.18245327  0.21347664  0.80617150     0.36500
N663        N  0.00118603  0.31536159  0.67069298    -0.43800
N664        N  0.21368530  0.19785570  0.82928024    -0.43800
C665        C  0.10519022  0.58825047  0.50118742    -0.00200
C666        C  0.08098061  0.61392485  0.96351969    -0.12000
C667        C  0.08366371  0.66337462  0.96189786     0.02100
C668        C  0.11034528  0.68792120  0.49924531    -0.00300
C669        C  0.13340025  0.66204498  0.53776956    -0.12000
C670        C  0.13141778  0.61262347  0.53873184     0.02000
H671        H  0.06063139  0.59522188  0.93474604     0.14900
H672        H  0.15345365  0.68046378  0.56698522     0.14900
C673        C  0.15537104  0.58778640  0.57954832     0.36600
C674        C  0.05745421  0.68785717  0.92248886     0.36500
N675        N  0.17444952  0.56793327  0.61234272    -0.43800
N676        N  0.03632316  0.70724100  0.89084537    -0.43800
C677        C  0.10347618  0.30443828  0.50179331    -0.00200
C678        C  0.09311258  0.27881983  0.95752044    -0.12000
C679        C  0.09678651  0.22943247  0.95686224     0.02100
C680        C  0.11075016  0.20457218  0.50158358    -0.00300
C681        C  0.12030143  0.23067753  0.54623824    -0.12000
C682        C  0.11726443  0.28019004  0.54643527     0.02000
H683        H  0.08314767  0.29758674  0.92296789     0.14900
H684        H  0.13087036  0.21251476  0.58093987     0.14900
C685        C  0.12874258  0.30555655  0.59271768     0.36600
C686        C  0.08567164  0.20558514  0.90965087     0.36500
N687        N  0.13816918  0.32612287  0.62958489    -0.43800
N688        N  0.07696868  0.18636022  0.87178525    -0.43800
C689        C  0.25994787  0.05754764  0.74912781    -0.00200
C690        C  0.28379168  0.03621129  0.70782350    -0.12000
C691        C  0.33310680  0.03032518  0.70854606     0.02100
C692        C  0.35953230  0.04778014  0.75014337    -0.00300
C693        C  0.33600732  0.06873235  0.79143177    -0.12000
C694        C  0.28668401  0.07272535  0.79194446     0.02000
H695        H  0.26381444  0.02332538  0.67526821     0.14900
H696        H  0.35636327  0.08175135  0.82368696     0.14900
C697        C  0.26498454  0.09274820  0.83700147     0.36600
C698        C  0.35587433  0.00713266  0.66590367     0.36500
N699        N  0.24810636  0.10818890  0.87370885    -0.43800
N700        N  0.37406763  0.98830739  0.63184981    -0.43800
C701        C  0.74341532  0.06079810  0.74589498    -0.00200
C702        C  0.71823573  0.08745534  0.78212178    -0.12000
C703        C  0.66886687  0.08489952  0.78509710     0.02100
C704        C  0.64380012  0.05439939  0.75205647    -0.00300
C705        C  0.66897518  0.02670556  0.71676580    -0.12000
C706        C  0.71833168  0.02992441  0.71308026     0.02000
H707        H  0.73718503  0.11075606  0.80792093     0.14900
H708        H  0.64992222  0.00318158  0.69129595     0.14900
C709        C  0.74231606  0.00033597  0.67617310     0.36600
C710        C  0.64493496  0.11277008  0.82353852     0.36500
N711        N  0.76141606  0.97674255  0.64641904    -0.43800
N712        N  0.62587535  0.13501502  0.85449836    -0.43800
C713        C  0.25833790  0.05561711  0.50324619    -0.00200
C714        C  0.28419621  0.08012607  0.54060489    -0.12000
C715        C  0.33369178  0.07853062  0.54122748     0.02100
C716        C  0.35819634  0.05079160  0.50492169    -0.00300
C717        C  0.33245532  0.02484746  0.96872187    -0.12000
C718        C  0.28294851  0.02753216  0.96712833     0.02000
H719        H  0.26571542  0.10136384  0.56884168     0.14900
H720        H  0.35113385  0.00345611  0.94076454     0.14900
C721        C  0.25832619  0.00081411  0.92836778     0.36600
C722        C  0.35850053  0.10487427  0.58020815     0.36500
N723        N  0.23835780  0.97999068  0.89700918    -0.43800
N724        N  0.37834500  0.12592961  0.61149938    -0.43800
C725        C  0.64225298  0.05103153  0.50309219    -0.00200
C726        C  0.66419383  0.07189787  0.54543830    -0.12000
C727        C  0.71345876  0.07579843  0.54812524     0.02100
C728        C  0.74175870  0.05981004  0.50690724    -0.00300
C729        C  0.71940983  0.03880538  0.96444960    -0.12000
C730        C  0.67012637  0.03380757  0.96255850     0.02000
H731        H  0.64263811  0.08505747  0.57671451     0.14900
H732        H  0.74050000  0.02578348  0.93278225     0.14900
C733        C  0.64884809  0.01230097  0.91805553     0.36600
C734        C  0.73338327  0.09718728  0.59332604     0.36500
N735        N  0.63178368  0.99508591  0.88239277    -0.43800
N736        N  0.74858381  0.11409878  0.63009892    -0.43800
C737        C  0.89350341  0.30806485  0.74426142    -0.00200
C738        C  0.92370054  0.28187834  0.77607003    -0.12000
C739        C  0.92185052  0.23239274  0.77674091     0.02100
C740        C  0.89045477  0.20819115  0.74380814    -0.00300
C741        C  0.86143288  0.23438154  0.71075337    -0.12000
C742        C  0.86213683  0.28391414  0.71127077     0.02000
H743        H  0.94793729  0.30016292  0.80140217     0.14900
H744        H  0.83723843  0.21608435  0.68546989     0.14900
C745        C  0.83071626  0.30909382  0.67717973     0.36600
C746        C  0.95282469  0.20726508  0.81123749     0.36500
N747        N  0.80535831  0.32940574  0.65017766    -0.43800
N748        N  0.97718824  0.18677982  0.83908564    -0.43800
C749        C  0.89485020  0.59233921  0.74857267    -0.00200
C750        C  0.86861128  0.61491705  0.71012236    -0.12000
C751        C  0.86532648  0.66428161  0.70807031     0.02100
C752        C  0.88768510  0.69205570  0.74599814    -0.00300
C753        C  0.91362310  0.66924172  0.78482905    -0.12000
C754        C  0.91777602  0.61981883  0.78607040     0.02000
H755        H  0.85080496  0.59380283  0.68132537     0.14900
H756        H  0.93107602  0.69007790  0.81409071     0.14900
C757        C  0.94410445  0.59810663  0.82724464     0.36600
C758        C  0.83758656  0.68519638  0.66749013     0.36500
N759        N  0.96512219  0.58079216  0.86034172    -0.43800
N760        N  0.81541329  0.70191143  0.63491494    -0.43800
C761        C  0.88826424  0.20681630  0.50492518    -0.00200
C762        C  0.92138715  0.22852197  0.97259789    -0.12000
C763        C  0.92527538  0.27796040  0.97046147     0.02100
C764        C  0.89497762  0.30648620  0.50044069    -0.00300
C765        C  0.86163005  0.28467308  0.53218593    -0.12000
C766        C  0.85836615  0.23542976  0.53506663     0.02000
H767        H  0.94441965  0.20677817  0.94912466     0.14900
H768        H  0.83788506  0.30629048  0.55486100     0.14900
C769        C  0.82225855  0.21554122  0.56725473     0.36600
C770        C  0.95885918  0.29840821  0.93541304     0.36500
N771        N  0.79278226  0.20049784  0.59304999    -0.43800
N772        N  0.98555897  0.31481168  0.90709165    -0.43800
C773        C  0.89407166  0.59065924  0.50087648    -0.00200
C774        C  0.87166679  0.61427085  0.96054658    -0.12000
C775        C  0.86827843  0.66361638  0.95997552     0.02100
C776        C  0.88657463  0.69035521  0.50127273    -0.00300
C777        C  0.90859690  0.66633981  0.54205462    -0.12000
C778        C  0.91287871  0.61692069  0.54189757     0.02000
H779        H  0.85703195  0.59397319  0.92907409     0.14900
H780        H  0.92298042  0.68620920  0.57394432     0.14900
C781        C  0.93511837  0.59385686  0.58498505     0.36600
C782        C  0.84501852  0.68526629  0.91678212     0.36500
N783        N  0.95285140  0.57535558  0.61953541    -0.43800
N784        N  0.82652656  0.70183567  0.88160070    -0.43800
C785        C  0.35760027  0.84060462  0.75059676    -0.00200
C786        C  0.33393176  0.86622621  0.71232502    -0.12000
C787        C  0.28469598  0.86294005  0.70651947     0.02100
C788        C  0.25824172  0.83465067  0.74057198    -0.00300
C789        C  0.28206835  0.80977549  0.77933399    -0.12000
C790        C  0.33124903  0.81226807  0.78437492     0.02000
H791        H  0.35411091  0.88793607  0.68612042     0.14900
H792        H  0.26211676  0.78831311  0.80597419     0.14900
C793        C  0.35367253  0.78688596  0.82577775     0.36600
C794        C  0.26230551  0.88987719  0.66625790     0.36500
N795        N  0.37162272  0.76672080  0.85908022    -0.43800
N796        N  0.24456546  0.91141184  0.63382580    -0.43800
C797        C  0.64178550  0.84369212  0.75252311    -0.00200
C798        C  0.66604044  0.82076626  0.79211053    -0.12000
C799        C  0.71551250  0.81855019  0.79259907     0.02100
C800        C  0.74167151  0.83797911  0.75158418    -0.00300
C801        C  0.71703607  0.86080558  0.71178890    -0.12000
C802        C  0.66757893  0.86452464  0.71244232     0.02000
H803        H  0.64617485  0.80498351  0.82314717     0.14900
H804        H  0.73647740  0.87635101  0.68033896     0.14900
C805        C  0.64400607  0.88859726  0.67087111     0.36600
C806        C  0.73796444  0.79567644  0.83556046     0.36500
N807        N  0.62510236  0.90784461  0.63754222    -0.43800
N808        N  0.75527518  0.77775940  0.87067266    -0.43800
C809        C  0.35828333  0.83859640  0.50272795    -0.00200
C810        C  0.33363718  0.85271239  0.95886419    -0.12000
C811        C  0.28424533  0.84921999  0.95638925     0.02100
C812        C  0.25851879  0.83253309  0.49923737    -0.00300
C813        C  0.28369617  0.81868274  0.54322437    -0.12000
C814        C  0.33312442  0.82095511  0.54495067     0.02000
H815        H  0.35315480  0.86567247  0.92608625     0.14900
H816        H  0.26479921  0.80559156  0.57633248     0.14900
C817        C  0.35737455  0.80537389  0.59058966     0.36600
C818        C  0.26129623  0.86350784  0.90954086     0.36500
N819        N  0.37699660  0.79269673  0.62695593    -0.43800
N820        N  0.24302605  0.87481008  0.87185661    -0.43800
C821        C  0.64213245  0.84406147  0.50747051    -0.00200
C822        C  0.66721168  0.86840042  0.96965503    -0.12000
C823        C  0.71669027  0.86594294  0.96756415     0.02100
C824        C  0.74192490  0.83951847  0.50472910    -0.00300
C825        C  0.71664991  0.81666195  0.54364253    -0.12000
C826        C  0.66718970  0.81824094  0.54492390     0.02000
H827        H  0.64800951  0.88838461  0.94089300     0.14900
H828        H  0.73554523  0.79677280  0.57270187     0.14900
C829        C  0.64298322  0.79398195  0.58575277     0.36600
C830        C  0.74043420  0.89165039  0.92746700     0.36500
N831        N  0.62366166  0.77472365  0.61863029    -0.43800
N832        N  0.75923967  0.91219135  0.89514898    -0.43800
loop_ 
_geom_bond_atom_site_label_1 
_geom_bond_atom_site_label_2 
_geom_bond_distance 
_geom_bond_site_symmetry_2 
_ccdc_geom_bond_type 
O1          V425   1.894       .  S
O1          C427   1.262       .  A
O2            V9   1.894       .  S
O2           C12   1.262       .  A
O3            V9   1.895       .  S
O3           C13   1.263       .  A
O4          V425   1.900       .  S
O4           C14   1.265       .  A
O5          V426   1.895       .  S
O5           C14   1.262       .  A
O6           V10   1.897       .  S
O6           C13   1.263       .  A
O7          V426   1.906       .  S
O7          C428   1.265       .  A
O8           V10   1.905       .  S
O8           C11   1.265       .  A
V9          O417   1.894       .  S
V9          O420   1.900   1_554  S
V9           V10   2.090       .  T
V10         O421   1.895   1_554  S
V10         O423   1.906       .  S
C11         O417   1.262       .  A
C11         C393   1.470       .  S
C12         O423   1.265       .  A
C12         C405   1.474       .  S
C13          C25   1.460       .  S
C14          C26   1.463       .  S
O15          V23   1.894       .  S
O15          C25   1.262       .  A
O16          V23   1.901       .  S
O16          C26   1.265       .  A
O17          V23   1.903       .  S
O17          C27   1.264       .  A
O18          V23   1.904       .  S
O18          C28   1.265       .  A
O19          V24   1.897       .  S
O19          C28   1.264       .  A
O20          V24   1.897       .  S
O20          C27   1.263       .  A
O21          V24   1.895       .  S
O21          C26   1.262       .  A
O22          V24   1.897       .  S
O22          C25   1.264       .  A
V23          V24   2.090       .  T
C27         C381   1.473       .  S
C28         C369   1.476       .  S
O29         V453   1.894       .  S
O29         C455   1.263       .  A
O30          V37   1.895   1_554  S
O30          C40   1.264   1_554  A
O31          V37   1.896   1_554  S
O31          C41   1.263       .  A
O32         V453   1.897       .  S
O32          C42   1.263       .  A
O33         V454   1.898       .  S
O33          C42   1.264       .  A
O34          V38   1.897   1_554  S
O34          C41   1.263       .  A
O35         V454   1.906       .  S
O35         C456   1.266       .  A
O36          V38   1.903   1_554  S
O36          C39   1.265       .  A
V37         O445   1.894       .  S
V37         O448   1.897       .  S
V37          V38   2.088       .  T
V38         O449   1.898       .  S
V38         O451   1.906       .  S
C39         O445   1.263   1_554  A
C39         C357   1.471       .  S
C40         O451   1.266       .  A
C40         C348   1.480   1_556  S
C41          C53   1.461       .  S
C42          C54   1.462       .  S
O43          V51   1.898       .  S
O43          C53   1.263       .  A
O44          V51   1.894       .  S
O44          C54   1.262       .  A
O45          V51   1.905       .  S
O45          C55   1.266       .  A
O46          V51   1.907       .  S
O46          C56   1.266       .  A
O47          V52   1.894       .  S
O47          C56   1.263       .  A
O48          V52   1.893       .  S
O48          C55   1.263       .  A
O49          V52   1.901       .  S
O49          C54   1.265       .  A
O50          V52   1.895       .  S
O50          C53   1.263       .  A
V51          V52   2.089       .  T
C55         C321   1.477       .  S
C56         C333   1.474       .  S
O57          V65   1.898       .  S
O57          C67   1.264       .  A
O58         V481   1.895       .  S
O58          C68   1.262       .  A
O59          V65   1.905       .  S
O59          C69   1.265       .  A
O60         V481   1.906       .  S
O60         C486   1.266       .  A
O61         V482   1.895       .  S
O61          C70   1.263       .  A
O62          V66   1.894       .  S
O62         C485   1.262       .  A
O63          V66   1.899       .  S
O63          C68   1.264       .  A
O64         V482   1.894       .  S
O64          C67   1.262       .  A
V65         O474   1.895   1_554  S
V65         O476   1.906       .  S
V65         V482   2.090       .  T
V66         O477   1.895       .  S
V66         O480   1.894       .  S
V66         V481   2.090       .  T
C67          C83   1.460       .  S
C68          C84   1.462       .  S
C69         O478   1.262       .  A
C69         C309   1.471       .  S
C70         O476   1.266       .  A
C70         C300   1.476       .  S
O71          V79   1.894       .  S
O71          C81   1.262       .  A
O72          V79   1.896       .  S
O72          C82   1.263       .  A
O73          V79   1.898       .  S
O73          C83   1.264       .  A
O74          V79   1.896       .  S
O74          C84   1.263       .  A
O75          V80   1.900       .  S
O75          C84   1.264       .  A
O76          V80   1.894       .  S
O76          C83   1.262       .  A
O77          V80   1.907       .  S
O77          C82   1.266       .  A
O78          V80   1.907       .  S
O78          C81   1.265       .  A
V79          V80   2.090       .  T
C81         C276   1.472       .  S
C82         C288   1.478       .  S
O85          V93   1.893   1_554  S
O85          C95   1.262   1_554  A
O86         V509   1.894       .  S
O86         C512   1.262       .  A
O87         V509   1.901       .  S
O87          C97   1.265       .  A
O88          V93   1.895   1_554  S
O88          C98   1.263       .  A
O89          V94   1.897   1_554  S
O89          C98   1.263       .  A
O90         V510   1.895       .  S
O90          C97   1.262       .  A
O91          V94   1.907       .  S
O91          C96   1.265       .  A
O92         V510   1.904       .  S
O92         C511   1.265       .  A
V93         O502   1.894       .  S
V93         O503   1.901       .  S
V93          V94   2.090       .  T
V94         O506   1.895       .  S
V94         O508   1.904       .  S
C95         O508   1.265       .  A
C95         C249   1.472   1_556  S
C96         O502   1.262       .  A
C96         C261   1.471   1_556  S
C97         C111   1.463       .  S
C98         C112   1.460       .  S
O99         V107   1.893       .  S
O99         C109   1.264       .  A
O100        V107   1.896       .  S
O100        C110   1.263       .  A
O101        V107   1.895       .  S
O101        C111   1.262       .  A
O102        V107   1.897       .  S
O102        C112   1.263       .  A
O103        V108   1.895       .  S
O103        C112   1.263       .  A
O104        V108   1.900       .  S
O104        C111   1.265       .  A
O105        V108   1.907       .  S
O105        C110   1.266       .  A
O106        V108   1.906       .  S
O106        C109   1.266       .  A
V107        V108   2.089       .  T
C109        C237   1.481       .  S
C110        C225   1.477       .  S
O113        V121   1.901       .  S
O113        C123   1.266       .  A
O114        V121   1.900       .  S
O114        C124   1.264       .  A
O115        V121   1.902       .  S
O115        C125   1.264       .  A
O116        V121   1.902       .  S
O116        C126   1.266       .  A
O117        V122   1.899       .  S
O117        C542   1.264       .  A
O118        V122   1.895       .  S
O118        C541   1.263       .  A
O119        V122   1.896       .  S
O119        C540   1.263       .  A
O120        V122   1.897       .  S
O120        C539   1.264       .  A
V121        V538   2.087   1_554  T
V122        V537   2.087       .  T
C123        O536   1.264   1_554  A
C123        C408   1.482       .  S
C124        O535   1.263   1_554  A
C124        C208   1.463   1_655  S
C125        O534   1.263   1_554  A
C125        C153   1.464       .  S
C126        O533   1.264   1_554  A
C126        C360   1.485       .  S
O127        V135   1.898       .  S
O127        C137   1.265       .  A
O128        V135   1.897       .  S
O128        C138   1.263       .  A
O129        V135   1.903       .  S
O129        C139   1.264       .  A
O130        V135   1.904       .  S
O130        C140   1.266       .  A
O131        V136   1.899       .  S
O131        C140   1.264       .  A
O132        V136   1.894       .  S
O132        C139   1.263       .  A
O133        V136   1.899       .  S
O133        C138   1.264       .  A
O134        V136   1.900       .  S
O134        C137   1.265       .  A
V135        V136   2.087       .  T
C137        C336   1.483       .  S
C138        C166   1.462       .  S
C139        C223   1.464   1_655  S
C140        C384   1.486       .  S
O141        V149   1.901       .  S
O141        C567   1.266       .  A
O142        V149   1.896       .  S
O142        C568   1.263       .  A
O143        V149   1.894   1_565  S
O143        C569   1.263       .  A
O144        V149   1.899       .  S
O144        C570   1.264       .  A
O145        V150   1.904       .  S
O145        C154   1.266       .  A
O146        V150   1.903   1_565  S
O146        C153   1.264       .  A
O147        V150   1.901       .  S
O147        C152   1.264       .  A
O148        V150   1.900       .  S
O148        C151   1.265       .  A
V149        V566   2.088       .  T
V150        V565   2.088   1_554  T
C151        O557   1.266   1_554  A
C151        C312   1.486       .  S
C152        O558   1.263   1_554  A
C152        C596   1.464   1_655  S
C153        O559   1.263   1_554  A
C154        O560   1.264   1_554  A
C154        C345   1.479       .  S
O155        V163   1.895       .  S
O155        C165   1.263       .  A
O156        V163   1.896   1_565  S
O156        C166   1.263       .  A
O157        V163   1.896       .  S
O157        C167   1.263       .  A
O158        V163   1.900       .  S
O158        C168   1.265       .  A
O159        V164   1.901       .  S
O159        C168   1.265       .  A
O160        V164   1.904       .  S
O160        C167   1.265       .  A
O161        V164   1.899   1_565  S
O161        C166   1.264       .  A
O162        V164   1.905       .  S
O162        C165   1.266       .  A
V163        V164   2.087       .  T
C165        C324   1.480       .  S
C167        C195   1.465   1_655  S
C168        C285   1.481       .  S
O169        V177   1.900       .  S
O169        C179   1.265       .  A
O170        V177   1.899       .  S
O170        C596   1.263       .  A
O171        V177   1.907   1_565  S
O171        C181   1.266       .  A
O172        V177   1.907       .  S
O172        C182   1.267       .  A
O173        V178   1.894       .  S
O173        C598   1.263       .  A
O174        V178   1.891   1_565  S
O174        C597   1.262       .  A
O175        V178   1.898       .  S
O175        C180   1.264       .  A
O176        V178   1.899       .  S
O176        C595   1.265       .  A
V177        V594   2.087   1_554  T
V178        V593   2.087       .  T
C179        O592   1.265   1_554  A
C179        C297   1.482       .  S
C180        O586   1.263       .  A
C180        C568   1.464   1_455  S
C181        O590   1.262   1_554  A
C181        C625   1.464       .  S
C182        O589   1.263   1_554  A
C182        C264   1.491       .  S
O183        V191   1.903       .  S
O183        C193   1.264       .  A
O184        V191   1.899   1_565  S
O184        C194   1.263       .  A
O185        V191   1.904       .  S
O185        C195   1.265       .  A
O186        V191   1.909       .  S
O186        C196   1.268       .  A
O187        V192   1.894       .  S
O187        C196   1.263       .  A
O188        V192   1.895       .  S
O188        C195   1.263       .  A
O189        V192   1.898   1_565  S
O189        C194   1.264       .  A
O190        V192   1.900       .  S
O190        C193   1.264       .  A
V191        V192   2.088       .  T
C193        C240   1.477       .  S
C194        C222   1.464       .  S
C196        C273   1.487       .  S
O197        V205   1.899       .  S
O197        C623   1.264       .  A
O198        V205   1.894       .  S
O198        C624   1.263       .  A
O199        V205   1.896       .  S
O199        C209   1.264       .  A
O200        V205   1.899       .  S
O200        C626   1.264       .  A
O201        V206   1.899       .  S
O201        C210   1.265       .  A
O202        V206   1.902       .  S
O202        C625   1.263       .  A
O203        V206   1.902       .  S
O203        C208   1.264       .  A
O204        V206   1.901       .  S
O204        C207   1.266       .  A
V205        V622   2.088       .  T
V206        V621   2.088   1_554  T
C207        O613   1.264   1_554  A
C207        C396   1.489   1_554  S
C208        O614   1.263   1_554  A
C209        O618   1.263       .  A
C209        C597   1.464       .  S
C210        O616   1.264   1_554  A
C210        C252   1.481   1_554  S
O211        V219   1.895       .  S
O211        C221   1.264       .  A
O212        V219   1.896       .  S
O212        C222   1.263       .  A
O213        V219   1.894       .  S
O213        C223   1.263       .  A
O214        V219   1.894       .  S
O214        C224   1.263       .  A
O215        V220   1.907       .  S
O215        C224   1.266       .  A
O216        V220   1.903       .  S
O216        C223   1.264       .  A
O217        V220   1.902       .  S
O217        C222   1.265       .  A
O218        V220   1.907       .  S
O218        C221   1.266       .  A
V219        V220   2.088       .  T
C221        C228   1.482       .  S
C224        C372   1.481       .  S
C225        C226   1.404       .  A
C225        C230   1.410       .  A
C226        C227   1.404       .  A
C226        H231   1.085       .  S
C227        C228   1.415       .  A
C227        C234   1.445       .  S
C228        C229   1.405       .  A
C229        C230   1.399       .  A
C229        H232   1.085       .  S
C230        C233   1.445       .  S
C233        N235   1.157       .  T
C234        N236   1.158       .  T
C237        C238   1.404       .  A
C237        C242   1.414       .  A
C238        C239   1.398       .  A
C238        H243   1.085       .  S
C239        C240   1.409       .  A
C239        C246   1.441       .  S
C240        C241   1.405       .  A
C241        C242   1.404       .  A
C241        H244   1.085       .  S
C242        C245   1.444       .  S
C245        N247   1.157       .  T
C246        N248   1.156       .  T
C249        C254   1.411       .  A
C249        C666   1.401   1_554  A
C250        C251   1.401       .  A
C250        C665   1.401       .  A
C250        H255   1.085       .  S
C251        C668   1.416       .  A
C251        C258   1.445       .  S
C252        C253   1.404   1_556  A
C252        C667   1.416       .  A
C253        C254   1.399       .  A
C253        H256   1.085       .  S
C254        C257   1.445       .  S
C257        N259   1.157       .  T
C258        N260   1.157       .  T
C261        C266   1.409       .  A
C261        C678   1.397   1_554  A
C262        C263   1.400       .  A
C262        C677   1.397       .  A
C262        H267   1.085       .  S
C263        C680   1.420       .  A
C263        C270   1.441       .  S
C264        C265   1.407       .  A
C264        C679   1.420   1_554  A
C265        C266   1.402       .  A
C265        H268   1.085       .  S
C266        C269   1.444       .  S
C269        N271   1.157       .  T
C270        N272   1.156       .  T
C273        C274   1.408       .  A
C273        C278   1.417       .  A
C274        C275   1.404       .  A
C274        H279   1.085       .  S
C275        C276   1.409       .  A
C275        C282   1.444       .  S
C276        C277   1.399       .  A
C277        C278   1.399       .  A
C277        H280   1.085       .  S
C278        C281   1.444       .  S
C281        N283   1.157       .  T
C282        N284   1.157   1_545  T
C285        C286   1.403       .  A
C285        C290   1.415       .  A
C286        C287   1.400       .  A
C286        H291   1.085       .  S
C287        C288   1.412       .  A
C287        C294   1.444       .  S
C288        C289   1.403       .  A
C289        C290   1.402       .  A
C289        H292   1.085       .  S
C290        C293   1.445       .  S
C293        N295   1.157   1_545  T
C294        N296   1.157       .  T
C297        C298   1.404       .  A
C297        C718   1.415   1_554  A
C298        C299   1.400       .  A
C298        H303   1.085       .  S
C299        C300   1.412       .  A
C299        C306   1.445       .  S
C300        C717   1.402   1_554  A
C301        C302   1.402       .  A
C301        C716   1.402       .  A
C301        H304   1.085       .  S
C302        C713   1.415       .  A
C302        C305   1.444       .  S
C305        N307   1.157   1_545  T
C306        N308   1.157       .  T
C309        C310   1.400       .  A
C309        C730   1.407   1_554  A
C310        C311   1.399       .  A
C310        H315   1.085       .  S
C311        C312   1.416       .  A
C311        C318   1.442       .  S
C312        C729   1.409   1_554  A
C313        C314   1.402       .  A
C313        C728   1.409       .  A
C313        H316   1.085       .  S
C314        C725   1.407       .  A
C314        C317   1.444       .  S
C317        N319   1.157   1_545  T
C318        N320   1.157       .  T
C321        C322   1.401       .  A
C321        C326   1.414       .  A
C322        C323   1.401       .  A
C322        H327   1.085       .  S
C323        C324   1.414       .  A
C323        C330   1.442       .  S
C324        C325   1.401       .  A
C325        C326   1.401       .  A
C325        H328   1.083       .  S
C326        C329   1.444       .  S
C329        N331   1.157       .  T
C330        N332   1.156       .  T
C333        C334   1.402       .  A
C333        C338   1.409       .  A
C334        C335   1.400       .  A
C334        H339   1.085       .  S
C335        C336   1.415       .  A
C335        C342   1.445       .  S
C336        C337   1.408       .  A
C337        C338   1.402       .  A
C337        H340   1.085       .  S
C338        C341   1.445       .  S
C341        N343   1.157       .  T
C342        N344   1.157       .  T
C345        C350   1.409       .  A
C345        C762   1.406   1_554  A
C346        C347   1.404       .  A
C346        C761   1.406       .  A
C346        H351   1.085       .  S
C347        C764   1.412       .  A
C347        C354   1.444       .  S
C348        C349   1.403       .  A
C348        C763   1.412   1_554  A
C349        C350   1.398       .  A
C349        H352   1.083       .  S
C350        C353   1.441       .  S
C353        N355   1.156       .  T
C354        N356   1.157       .  T
C357        C362   1.409       .  A
C357        C774   1.399   1_554  A
C358        C359   1.398       .  A
C358        C773   1.399       .  A
C358        H363   1.085       .  S
C359        C776   1.416       .  A
C359        C366   1.442       .  S
C360        C361   1.408       .  A
C360        C775   1.416   1_554  A
C361        C362   1.402       .  A
C361        H364   1.085       .  S
C362        C365   1.445       .  S
C365        N367   1.157       .  T
C366        N368   1.157       .  T
C369        C370   1.404       .  A
C369        C374   1.409       .  A
C370        C371   1.404       .  A
C370        H375   1.085       .  S
C371        C372   1.415       .  A
C371        C378   1.444       .  S
C372        C373   1.405       .  A
C373        C374   1.399       .  A
C373        H376   1.085       .  S
C374        C377   1.444       .  S
C377        N379   1.157       .  T
C378        N380   1.157       .  T
C381        C382   1.400       .  A
C381        C386   1.409       .  A
C382        C383   1.400       .  A
C382        H387   1.085       .  S
C383        C384   1.417       .  A
C383        C390   1.443       .  S
C384        C385   1.408       .  A
C385        C386   1.402       .  A
C385        H388   1.085       .  S
C386        C389   1.444       .  S
C389        N391   1.157       .  T
C390        N392   1.157       .  T
C393        C398   1.408       .  A
C393        C810   1.399   1_554  A
C394        C395   1.402       .  A
C394        C809   1.399       .  A
C394        H399   1.085       .  S
C395        C812   1.419       .  A
C395        C402   1.443       .  S
C396        C397   1.407   1_556  A
C396        C811   1.419       .  A
C397        C398   1.400       .  A
C397        H400   1.085       .  S
C398        C401   1.444       .  S
C401        N403   1.157       .  T
C402        N404   1.157       .  T
C405        C410   1.411       .  A
C405        C822   1.401   1_554  A
C406        C407   1.402       .  A
C406        C821   1.401       .  A
C406        H411   1.085       .  S
C407        C824   1.417       .  A
C407        C414   1.445       .  S
C408        C409   1.404       .  A
C408        C823   1.417   1_554  A
C409        C410   1.399       .  A
C409        H412   1.085       .  S
C410        C413   1.445       .  S
C413        N415   1.157       .  T
C414        N416   1.157       .  T
O418        V425   1.894       .  S
O418        C428   1.262       .  A
O419        V425   1.895       .  S
O419        C429   1.263       .  A
O420        C430   1.265       .  A
O421        C430   1.262       .  A
O422        V426   1.897       .  S
O422        C429   1.263       .  A
O424        V426   1.905       .  S
O424        C427   1.265       .  A
V425        V426   2.090       .  T
C427        C809   1.470       .  S
C428        C821   1.474       .  S
C429        C441   1.460       .  S
C430        C442   1.463       .  S
O431        V439   1.894       .  S
O431        C441   1.262       .  A
O432        V439   1.901       .  S
O432        C442   1.265       .  A
O433        V439   1.903       .  S
O433        C443   1.264       .  A
O434        V439   1.904       .  S
O434        C444   1.265       .  A
O435        V440   1.897       .  S
O435        C444   1.264       .  A
O436        V440   1.897       .  S
O436        C443   1.263       .  A
O437        V440   1.895       .  S
O437        C442   1.262       .  A
O438        V440   1.897       .  S
O438        C441   1.264       .  A
V439        V440   2.090       .  T
C443        C797   1.473       .  S
C444        C785   1.476       .  S
O446        V453   1.895       .  S
O446        C456   1.264       .  A
O447        V453   1.896       .  S
O447        C457   1.263       .  A
O448        C458   1.263       .  A
O449        C458   1.264       .  A
O450        V454   1.897       .  S
O450        C457   1.263       .  A
O452        V454   1.903       .  S
O452        C455   1.265       .  A
V453        V454   2.088       .  T
C455        C773   1.471       .  S
C456        C764   1.480       .  S
C457        C469   1.461       .  S
C458        C470   1.462       .  S
O459        V467   1.898       .  S
O459        C469   1.263       .  A
O460        V467   1.894       .  S
O460        C470   1.262       .  A
O461        V467   1.905       .  S
O461        C471   1.266       .  A
O462        V467   1.907       .  S
O462        C472   1.266       .  A
O463        V468   1.894       .  S
O463        C472   1.263       .  A
O464        V468   1.893       .  S
O464        C471   1.263       .  A
O465        V468   1.901       .  S
O465        C470   1.265       .  A
O466        V468   1.895       .  S
O466        C469   1.263       .  A
V467        V468   2.089       .  T
C471        C737   1.477       .  S
C472        C749   1.474       .  S
O473        V481   1.898       .  S
O473        C483   1.264       .  A
O474        C484   1.262       .  A
O475        V481   1.905       .  S
O475        C485   1.265       .  A
O477        C486   1.263       .  A
O478        V482   1.894       .  S
O479        V482   1.899   1_556  S
O479        C484   1.264       .  A
O480        C483   1.262       .  A
C483        C499   1.460       .  S
C484        C500   1.462       .  S
C485        C725   1.471       .  S
C486        C716   1.476       .  S
O487        V495   1.894       .  S
O487        C497   1.262       .  A
O488        V495   1.896       .  S
O488        C498   1.263       .  A
O489        V495   1.898       .  S
O489        C499   1.264       .  A
O490        V495   1.896       .  S
O490        C500   1.263       .  A
O491        V496   1.900       .  S
O491        C500   1.264       .  A
O492        V496   1.894       .  S
O492        C499   1.262       .  A
O493        V496   1.907       .  S
O493        C498   1.266       .  A
O494        V496   1.907       .  S
O494        C497   1.265       .  A
V495        V496   2.090       .  T
C497        C692   1.472       .  S
C498        C704   1.478       .  S
O501        V509   1.893       .  S
O501        C511   1.262       .  A
O503        C513   1.265       .  A
O504        V509   1.895       .  S
O504        C514   1.263       .  A
O505        V510   1.897       .  S
O505        C514   1.263       .  A
O506        C513   1.262       .  A
O507        V510   1.907       .  S
O507        C512   1.265       .  A
V509        V510   2.090       .  T
C511        C665   1.472       .  S
C512        C677   1.471       .  S
C513        C527   1.463       .  S
C514        C528   1.460       .  S
O515        V523   1.893       .  S
O515        C525   1.264       .  A
O516        V523   1.896       .  S
O516        C526   1.263       .  A
O517        V523   1.895       .  S
O517        C527   1.262       .  A
O518        V523   1.897       .  S
O518        C528   1.263       .  A
O519        V524   1.895       .  S
O519        C528   1.263       .  A
O520        V524   1.900       .  S
O520        C527   1.265       .  A
O521        V524   1.907       .  S
O521        C526   1.266       .  A
O522        V524   1.906       .  S
O522        C525   1.266       .  A
V523        V524   2.089       .  T
C525        C653   1.481       .  S
C526        C641   1.477       .  S
O529        V537   1.901       .  S
O529        C539   1.266       .  A
O530        V537   1.900       .  S
O530        C540   1.264       .  A
O531        V537   1.902       .  S
O531        C541   1.264       .  A
O532        V537   1.902       .  S
O532        C542   1.266       .  A
O533        V538   1.899       .  S
O534        V538   1.895       .  S
O535        V538   1.896       .  S
O536        V538   1.897       .  S
C539        C824   1.482       .  S
C540        C624   1.463   1_655  S
C541        C569   1.464       .  S
C542        C776   1.485       .  S
O543        V551   1.898       .  S
O543        C553   1.265       .  A
O544        V551   1.897       .  S
O544        C554   1.263       .  A
O545        V551   1.903       .  S
O545        C555   1.264       .  A
O546        V551   1.904       .  S
O546        C556   1.266       .  A
O547        V552   1.899       .  S
O547        C556   1.264       .  A
O548        V552   1.894       .  S
O548        C555   1.263       .  A
O549        V552   1.899       .  S
O549        C554   1.264       .  A
O550        V552   1.900       .  S
O550        C553   1.265       .  A
V551        V552   2.087       .  T
C553        C752   1.483       .  S
C554        C582   1.462       .  S
C555        C639   1.464   1_655  S
C556        C800   1.486       .  S
O557        V565   1.901       .  S
O558        V565   1.896       .  S
O559        V565   1.894   1_565  S
O560        V565   1.899       .  S
O561        V566   1.904       .  S
O561        C570   1.266       .  A
O562        V566   1.903   1_565  S
O562        C569   1.264       .  A
O563        V566   1.901       .  S
O563        C568   1.264       .  A
O564        V566   1.900       .  S
O564        C567   1.265       .  A
C567        C728   1.486       .  S
C570        C761   1.479       .  S
O571        V579   1.895       .  S
O571        C581   1.263       .  A
O572        V579   1.896   1_565  S
O572        C582   1.263       .  A
O573        V579   1.896       .  S
O573        C583   1.263       .  A
O574        V579   1.900       .  S
O574        C584   1.265       .  A
O575        V580   1.901       .  S
O575        C584   1.265       .  A
O576        V580   1.904       .  S
O576        C583   1.265       .  A
O577        V580   1.899   1_565  S
O577        C582   1.264       .  A
O578        V580   1.905       .  S
O578        C581   1.266       .  A
V579        V580   2.087       .  T
C581        C740   1.480       .  S
C583        C611   1.465   1_655  S
C584        C701   1.481       .  S
O585        V593   1.900       .  S
O585        C595   1.265       .  A
O586        V593   1.899       .  S
O587        V593   1.907   1_565  S
O587        C597   1.266       .  A
O588        V593   1.907       .  S
O588        C598   1.267       .  A
O589        V594   1.894       .  S
O590        V594   1.891   1_565  S
O591        V594   1.898       .  S
O591        C596   1.264   1_556  A
O592        V594   1.899       .  S
C595        C713   1.482       .  S
C598        C680   1.491       .  S
O599        V607   1.903       .  S
O599        C609   1.264       .  A
O600        V607   1.899   1_565  S
O600        C610   1.263       .  A
O601        V607   1.904       .  S
O601        C611   1.265       .  A
O602        V607   1.909       .  S
O602        C612   1.268       .  A
O603        V608   1.894       .  S
O603        C612   1.263       .  A
O604        V608   1.895       .  S
O604        C611   1.263       .  A
O605        V608   1.898   1_565  S
O605        C610   1.264       .  A
O606        V608   1.900       .  S
O606        C609   1.264       .  A
V607        V608   2.088       .  T
C609        C656   1.477       .  S
C610        C638   1.464       .  S
C612        C689   1.487       .  S
O613        V621   1.899       .  S
O614        V621   1.894       .  S
O615        V621   1.896       .  S
O615        C625   1.264   1_556  A
O616        V621   1.899       .  S
O617        V622   1.899       .  S
O617        C626   1.265       .  A
O618        V622   1.902       .  S
O619        V622   1.902       .  S
O619        C624   1.264       .  A
O620        V622   1.901       .  S
O620        C623   1.266       .  A
C623        C812   1.489       .  S
C626        C668   1.481       .  S
O627        V635   1.895       .  S
O627        C637   1.264       .  A
O628        V635   1.896       .  S
O628        C638   1.263       .  A
O629        V635   1.894       .  S
O629        C639   1.263       .  A
O630        V635   1.894       .  S
O630        C640   1.263       .  A
O631        V636   1.907       .  S
O631        C640   1.266       .  A
O632        V636   1.903       .  S
O632        C639   1.264       .  A
O633        V636   1.902       .  S
O633        C638   1.265       .  A
O634        V636   1.907       .  S
O634        C637   1.266       .  A
V635        V636   2.088       .  T
C637        C644   1.482       .  S
C640        C788   1.481       .  S
C641        C642   1.404       .  A
C641        C646   1.410       .  A
C642        C643   1.404       .  A
C642        H647   1.085       .  S
C643        C644   1.415       .  A
C643        C650   1.445       .  S
C644        C645   1.405       .  A
C645        C646   1.399       .  A
C645        H648   1.085       .  S
C646        C649   1.445       .  S
C649        N651   1.157       .  T
C650        N652   1.158       .  T
C653        C654   1.404       .  A
C653        C658   1.414       .  A
C654        C655   1.398       .  A
C654        H659   1.085       .  S
C655        C656   1.409       .  A
C655        C662   1.441       .  S
C656        C657   1.405       .  A
C657        C658   1.404       .  A
C657        H660   1.085       .  S
C658        C661   1.444       .  S
C661        N663   1.157       .  T
C662        N664   1.156       .  T
C665        C670   1.411       .  A
C666        C667   1.401       .  A
C666        H671   1.085       .  S
C667        C674   1.445       .  S
C668        C669   1.404       .  A
C669        C670   1.399       .  A
C669        H672   1.085       .  S
C670        C673   1.445       .  S
C673        N675   1.157       .  T
C674        N676   1.157       .  T
C677        C682   1.409       .  A
C678        C679   1.400       .  A
C678        H683   1.085       .  S
C679        C686   1.441       .  S
C680        C681   1.407       .  A
C681        C682   1.402       .  A
C681        H684   1.085       .  S
C682        C685   1.444       .  S
C685        N687   1.157       .  T
C686        N688   1.156       .  T
C689        C690   1.408       .  A
C689        C694   1.417       .  A
C690        C691   1.404       .  A
C690        H695   1.085       .  S
C691        C692   1.409       .  A
C691        C698   1.444       .  S
C692        C693   1.399       .  A
C693        C694   1.399       .  A
C693        H696   1.085       .  S
C694        C697   1.444       .  S
C697        N699   1.157       .  T
C698        N700   1.157   1_545  T
C701        C702   1.403       .  A
C701        C706   1.415       .  A
C702        C703   1.400       .  A
C702        H707   1.085       .  S
C703        C704   1.412       .  A
C703        C710   1.444       .  S
C704        C705   1.403       .  A
C705        C706   1.402       .  A
C705        H708   1.085       .  S
C706        C709   1.445       .  S
C709        N711   1.157   1_545  T
C710        N712   1.157       .  T
C713        C714   1.404       .  A
C714        C715   1.400       .  A
C714        H719   1.085       .  S
C715        C716   1.412       .  A
C715        C722   1.445       .  S
C717        C718   1.402       .  A
C717        H720   1.085       .  S
C718        C721   1.444       .  S
C721        N723   1.157   1_545  T
C722        N724   1.157       .  T
C725        C726   1.400       .  A
C726        C727   1.399       .  A
C726        H731   1.085       .  S
C727        C728   1.416       .  A
C727        C734   1.442       .  S
C729        C730   1.402       .  A
C729        H732   1.085       .  S
C730        C733   1.444       .  S
C733        N735   1.157   1_545  T
C734        N736   1.157       .  T
C737        C738   1.401       .  A
C737        C742   1.414       .  A
C738        C739   1.401       .  A
C738        H743   1.085       .  S
C739        C740   1.414       .  A
C739        C746   1.442       .  S
C740        C741   1.401       .  A
C741        C742   1.401       .  A
C741        H744   1.083       .  S
C742        C745   1.444       .  S
C745        N747   1.157       .  T
C746        N748   1.156       .  T
C749        C750   1.402       .  A
C749        C754   1.409       .  A
C750        C751   1.400       .  A
C750        H755   1.085       .  S
C751        C752   1.415       .  A
C751        C758   1.445       .  S
C752        C753   1.408       .  A
C753        C754   1.402       .  A
C753        H756   1.085       .  S
C754        C757   1.445       .  S
C757        N759   1.157       .  T
C758        N760   1.157       .  T
C761        C766   1.409       .  A
C762        C763   1.404       .  A
C762        H767   1.085       .  S
C763        C770   1.444       .  S
C764        C765   1.403       .  A
C765        C766   1.398       .  A
C765        H768   1.083       .  S
C766        C769   1.441       .  S
C769        N771   1.156       .  T
C770        N772   1.157       .  T
C773        C778   1.409       .  A
C774        C775   1.398       .  A
C774        H779   1.085       .  S
C775        C782   1.442       .  S
C776        C777   1.408       .  A
C777        C778   1.402       .  A
C777        H780   1.085       .  S
C778        C781   1.445       .  S
C781        N783   1.157       .  T
C782        N784   1.157       .  T
C785        C786   1.404       .  A
C785        C790   1.409       .  A
C786        C787   1.404       .  A
C786        H791   1.085       .  S
C787        C788   1.415       .  A
C787        C794   1.444       .  S
C788        C789   1.405       .  A
C789        C790   1.399       .  A
C789        H792   1.085       .  S
C790        C793   1.444       .  S
C793        N795   1.157       .  T
C794        N796   1.157       .  T
C797        C798   1.400       .  A
C797        C802   1.409       .  A
C798        C799   1.400       .  A
C798        H803   1.085       .  S
C799        C800   1.417       .  A
C799        C806   1.443       .  S
C800        C801   1.408       .  A
C801        C802   1.402       .  A
C801        H804   1.085       .  S
C802        C805   1.444       .  S
C805        N807   1.157       .  T
C806        N808   1.157       .  T
C809        C814   1.408       .  A
C810        C811   1.402       .  A
C810        H815   1.085       .  S
C811        C818   1.443       .  S
C812        C813   1.407       .  A
C813        C814   1.400       .  A
C813        H816   1.085       .  S
C814        C817   1.444       .  S
C817        N819   1.157       .  T
C818        N820   1.157       .  T
C821        C826   1.411       .  A
C822        C823   1.402       .  A
C822        H827   1.085       .  S
C823        C830   1.445       .  S
C824        C825   1.404       .  A
C825        C826   1.399       .  A
C825        H828   1.085       .  S
C826        C829   1.445       .  S
C829        N831   1.157       .  T
C830        N832   1.157       .  T
