geometry optimzed in LAMMPS
_audit_creation_date              2020-11-30 
_audit_creation_method            'lammps2cif' 
_symmetry_space_group_name_H-M    'P1' 
_symmetry_Int_Tables_number       1 
_symmetry_cell_setting            triclinic 
loop_ 
_symmetry_equiv_pos_as_xyz 
  x,y,z 
_cell_length_a                    47.81114899538271 
_cell_length_b                    47.81356366386678 
_cell_length_c                    47.84867974753081 
_cell_angle_alpha                 89.79525940556167 
_cell_angle_beta                  89.97082182307354 
_cell_angle_gamma                 89.80865874600687 
loop_ 
_atom_site_label 
_atom_site_type_symbol 
_atom_site_fract_x 
_atom_site_fract_y 
_atom_site_fract_z 
_atom_site_charge 
O1          O  0.98680100  0.36146591  0.97449877    -0.82250
C2          C  0.89122686  0.32890862  0.92471282     0.97100
O3          O  0.91406172  0.32035170  0.91404728    -0.71370
O4          O  0.93776645  0.36792929  0.90906191    -0.74960
Al5        Al  0.95009047  0.33471986  0.92526246     1.48980
C6          C  0.94758800  0.39099178  0.91625397     0.92360
O7          O  0.91340195  0.38867071  0.97795197    -0.81180
O8          O  0.94126819  0.31609650  0.00933212    -0.74740
Al9        Al  0.95000990  0.37427065  0.97543588     1.90120
O10         O  0.89544569  0.35090635  0.99742116    -0.73810
O11         O  0.93227680  0.28530304  0.96422830    -0.73660
O12         O  0.88745551  0.32563644  0.95057278    -0.79320
O13         O  0.96542107  0.30103568  0.93712937    -0.77520
O14         O  0.93857539  0.34323070  0.95975076    -1.13650
O15         O  0.98748886  0.34930002  0.93016947    -0.72850
C16         C  0.99972988  0.35841482  0.95180314     0.97870
C17         C  0.89443843  0.37703683  0.99222665     0.94260
Al18       Al  0.91566429  0.32066380  0.97860056     1.55560
O19         O  0.95494779  0.39529985  0.94124073    -0.77470
C20         C  0.95614328  0.28218467  0.95265474     0.98430
C21         C  0.94999815  0.33677589  0.02319253     0.93310
O22         O  0.94883680  0.36117350  0.01315452    -0.82790
O23         O  0.77711321  0.36554617  0.75931651    -0.82250
C24         C  0.81764529  0.40172175  0.85840881     0.97100
O25         O  0.82864549  0.41093246  0.83630921    -0.71370
O26         O  0.83617949  0.36125423  0.81642343    -0.74960
Al27       Al  0.82112405  0.39375479  0.80115511     1.48980
C28         C  0.82937617  0.33721241  0.80883664     0.92360
O29         O  0.76474122  0.33867608  0.83182757    -0.81180
O30         O  0.73418865  0.40990080  0.80432731    -0.74740
Al31       Al  0.77164175  0.35317636  0.79608876     1.90120
O32         O  0.74586183  0.37619623  0.85070100    -0.73810
O33         O  0.77803235  0.44180883  0.81261842    -0.73660
O34         O  0.79140531  0.40299506  0.86055681    -0.79320
O35         O  0.81028509  0.42637853  0.78400375    -0.77520
O36         O  0.78547782  0.38455557  0.80920745    -1.13650
O37         O  0.82094122  0.37840710  0.76454114    -0.72850
C38         C  0.80059117  0.37178057  0.74917279     0.97870
C39         C  0.75072566  0.35004093  0.85106137     0.94260
Al40       Al  0.76442097  0.40664165  0.83061397     1.55560
O41         O  0.80626971  0.33259360  0.79689792    -0.77470
C42         C  0.79292023  0.44478757  0.79056018     0.98430
C43         C  0.72194547  0.38913037  0.79374144     0.93310
O44         O  0.73393994  0.36567653  0.79254341    -0.82790
O45         O  0.75626641  0.76756642  0.37594364    -0.82250
C46         C  0.85166121  0.81312580  0.41485321     0.97100
O47         O  0.82882692  0.82306566  0.42379999    -0.71370
O48         O  0.81072044  0.82880605  0.37345515    -0.74960
Al49       Al  0.79459302  0.81386921  0.40562684     1.48980
C50         C  0.80548179  0.82063454  0.34925866     0.92360
O51         O  0.83114457  0.75878990  0.35384550    -0.81180
O52         O  0.80056181  0.72823105  0.42421783    -0.74740
Al53       Al  0.79418018  0.76364463  0.36607096     1.90120
O54         O  0.84819993  0.74011499  0.39231916    -0.73810
O55         O  0.80677178  0.77337031  0.45547611    -0.73660
O56         O  0.85552744  0.78718857  0.41821698    -0.79320
O57         O  0.77601292  0.80239407  0.43781199    -0.77520
O58         O  0.80485510  0.77864641  0.39774482    -1.13650
O59         O  0.75899914  0.81177897  0.38838857    -0.72850
C60         C  0.74496607  0.79094240  0.38060325     0.97870
C61         C  0.84991089  0.74499185  0.36622390     0.94260
Al62       Al  0.82630589  0.75910447  0.42136793     1.55560
O63         O  0.79420941  0.79726525  0.34490979    -0.77470
C64         C  0.78291050  0.78560467  0.45674458     0.98430
C65         C  0.79114713  0.71543585  0.40314856     0.93310
O66         O  0.79190246  0.72639921  0.37923598    -0.82790
O67         O  0.97224231  0.96762215  0.37465749    -0.82250
C68         C  0.92110211  0.87556852  0.33340494     0.97100
O69         O  0.91309642  0.89919779  0.32433953    -0.71370
O70         O  0.90876518  0.91623169  0.37500056    -0.74960
Al71       Al  0.92429902  0.93239149  0.34354874     1.48980
C72         C  0.91706683  0.92040168  0.39933559     0.92360
O73         O  0.97866670  0.89163369  0.39384534    -0.81180
O74         O  0.00807299  0.92225654  0.32299349    -0.74740
Al75       Al  0.97495293  0.92899836  0.38266497     1.90120
O76         O  0.99600900  0.87487036  0.35489962    -0.73810
O77         O  0.96139348  0.91753064  0.29303850    -0.73660
O78         O  0.94684914  0.86995396  0.33101299    -0.79320
O79         O  0.93683959  0.95125847  0.31197966    -0.77520
O80         O  0.95883629  0.91993824  0.35101024    -1.13650
O81         O  0.92802201  0.96703744  0.36213550    -0.72850
C82         C  0.94902809  0.97976396  0.37146460     0.97870
C83         C  0.99199362  0.87294573  0.38108544     0.94260
Al84       Al  0.97641215  0.89765832  0.32676766     1.55560
O85         O  0.94147299  0.92913456  0.40426565    -0.77470
C86         C  0.95119124  0.94233899  0.29202671     0.98430
C87         C  0.02206930  0.93108257  0.34361918     0.93310
O88         O  0.01207460  0.93049022  0.36804824    -0.82790
O89         O  0.37023778  0.96177229  0.98965035    -0.82250
C90         C  0.33210407  0.91473342  0.89453721     0.97100
O91         O  0.32397996  0.90408060  0.91748498    -0.71370
O92         O  0.37331317  0.89845620  0.93861895    -0.74960
Al93       Al  0.34080031  0.91420823  0.95263504     1.48980
C94         C  0.39734265  0.90705660  0.94427689     0.92360
O95         O  0.39157880  0.97054038  0.91463708    -0.81180
O96         O  0.31983286  0.99804897  0.94626237    -0.74740
Al97       Al  0.37962406  0.96532854  0.95178847     1.90120
O98         O  0.35240235  0.98876135  0.89878469    -0.73810
O99         O  0.29040702  0.95218227  0.93701883    -0.73660
O100        O  0.32910884  0.94070350  0.89092592    -0.79320
O101        O  0.30822881  0.92584810  0.96986511    -0.77520
O102        O  0.34837360  0.94926184  0.94146345    -1.13650
O103        O  0.35750004  0.91757925  0.98869115    -0.72850
C104        C  0.36671951  0.93858670  0.00158274     0.97870
C105        C  0.37843080  0.98429490  0.89633906     0.94260
Al106      Al  0.32429027  0.96814040  0.91976033     1.55560
O107        O  0.40157511  0.93184482  0.95226502    -0.77470
C108        C  0.28883560  0.94110887  0.96120816     0.98430
C109        C  0.34035162  0.01165365  0.95583175     0.93310
O110        O  0.36496757  0.00230140  0.95389320    -0.82790
O111        O  0.36632105  0.74791162  0.78729714    -0.82250
C112        C  0.40535436  0.84675495  0.82366337     0.97100
O113        O  0.41520314  0.82484097  0.83485426    -0.71370
O114        O  0.36555456  0.80522965  0.84503774    -0.74960
Al115      Al  0.39740163  0.78948856  0.82895227     1.48980
C116        C  0.34115491  0.79860679  0.83814470     0.92360
O117        O  0.34184095  0.82090737  0.77140796    -0.81180
O118        O  0.41278230  0.79046135  0.74262713    -0.74740
Al119      Al  0.35560608  0.78488124  0.78019939     1.90120
O120        O  0.37989005  0.83732560  0.75159592    -0.73810
O121        O  0.44492689  0.80118494  0.78626537    -0.73660
O122        O  0.40618507  0.84868425  0.79741333    -0.79320
O123        O  0.42928828  0.77089686  0.81675398    -0.77520
O124        O  0.38742598  0.79740721  0.79339855    -1.13650
O125        O  0.38100726  0.75348417  0.83043572    -0.72850
C126        C  0.37221843  0.73817886  0.81104126     0.97870
C127        C  0.35374753  0.83861531  0.75592632     0.94260
Al128      Al  0.40976652  0.81804427  0.77156977     1.55560
O129        O  0.33580163  0.78786417  0.81465677    -0.77470
C130        C  0.44729913  0.77779248  0.79909771     0.98430
C131        C  0.39187093  0.77912786  0.73119941     0.93310
O132        O  0.36829210  0.77908600  0.74300819    -0.82790
O133        O  0.14064895  0.50317507  0.96106372    -0.82250
C134        C  0.16252128  0.41741267  0.88725379     0.97100
O135        O  0.17622937  0.44033003  0.88482082    -0.71370
O136        O  0.14389963  0.48282822  0.88231640    -0.74960
Al137      Al  0.17263476  0.47461952  0.90855242     1.48980
C138        C  0.12094462  0.49447274  0.88759497     0.92360
O139        O  0.09718498  0.44628547  0.93046810    -0.81180
O140        O  0.16082314  0.43527323  0.98334730    -0.74740
Al141      Al  0.12013420  0.47447907  0.94524846     1.90120
O142        O  0.12111547  0.41148251  0.94925078    -0.73810
O143        O  0.19859948  0.42649124  0.94443570    -0.73660
O144        O  0.15622659  0.40848936  0.91098691    -0.79320
O145        O  0.20442716  0.47005518  0.93369412    -0.77520
O146        O  0.15051485  0.45763084  0.93293407    -1.13650
O147        O  0.16962230  0.51174946  0.92623094    -0.72850
C148        C  0.15766322  0.51912323  0.94889067     0.97870
C149        C  0.09893597  0.42125471  0.93873679     0.94260
Al150      Al  0.15891097  0.42328591  0.94578555     1.55560
O151        O  0.11213128  0.49603486  0.91234606    -0.77470
C152        C  0.21157831  0.44896285  0.94796658     0.98430
C153        C  0.13848931  0.44333555  0.99464704     0.93310
O154        O  0.12038693  0.45705520  0.98107408    -0.82790
O155        O  0.10291857  0.26674896  0.74321679    -0.82250
C156        C  0.08879874  0.34139239  0.82851537     0.97100
O157        O  0.07285722  0.34452561  0.80708607    -0.71370
O158        O  0.10216183  0.34548779  0.76368022    -0.74960
Al159      Al  0.07307331  0.32042160  0.77296965     1.48980
C160        C  0.12457348  0.33960759  0.75151231     0.92360
O161        O  0.14810595  0.29694437  0.79940526    -0.81180
O162        O  0.08373893  0.24520950  0.81183526    -0.74740
Al163      Al  0.12441008  0.28224178  0.77163695     1.90120
O164        O  0.12538674  0.27776990  0.83454297    -0.73810
O165        O  0.04778174  0.28561094  0.82215015    -0.73660
O166        O  0.09111913  0.31755912  0.83907562    -0.79320
O167        O  0.04016957  0.29679576  0.77910958    -0.77520
O168        O  0.09479193  0.29527629  0.78924477    -1.13650
O169        O  0.07404625  0.30212596  0.73573412    -0.72850
C170        C  0.08572395  0.27939655  0.72770836     0.97870
C171        C  0.14690578  0.28955797  0.82476295     0.94260
Al172      Al  0.08713903  0.28267525  0.82395759     1.55560
O173        O  0.13268078  0.31464797  0.74964035    -0.77470
C174        C  0.03363352  0.28244879  0.80037885     0.98430
C175        C  0.10564346  0.23348239  0.80315932     0.93310
O176        O  0.12365263  0.24673221  0.78910140    -0.82790
O177        O  0.46030935  0.49534980  0.63289348    -0.82250
C178        C  0.42067433  0.59706550  0.66446291     0.97100
O179        O  0.41058354  0.57529419  0.67502220    -0.71370
O180        O  0.40389097  0.55572187  0.62434311    -0.74960
Al181      Al  0.41739689  0.54032419  0.65807619     1.48980
C182        C  0.40983591  0.54480693  0.60130314     0.92360
O183        O  0.47379886  0.56693272  0.60223137    -0.81180
O184        O  0.50484775  0.54306005  0.67404430    -0.74740
Al185      Al  0.46672728  0.53174563  0.61843542     1.90120
O186        O  0.49212244  0.58792535  0.63888506    -0.73810
O187        O  0.46061048  0.55174575  0.70576887    -0.73660
O188        O  0.44690349  0.59962530  0.66567592    -0.79320
O189        O  0.42756389  0.52357799  0.69118844    -0.77520
O190        O  0.45316022  0.54689824  0.64903722    -1.13650
O191        O  0.41636913  0.50361471  0.64383733    -0.72850
C192        C  0.43601211  0.48677051  0.63880936     0.97870
C193        C  0.48731383  0.58693992  0.61279289     0.94260
Al194      Al  0.47414501  0.56914524  0.67014104     1.55560
O195        O  0.43241376  0.53152113  0.59792263    -0.77470
C196        C  0.44543149  0.52990123  0.70919201     0.98430
C197        C  0.51643969  0.53056966  0.65386850     0.93310
O198        O  0.50411245  0.52824266  0.63081963    -0.82790
O199        O  0.25581875  0.71027992  0.62417304    -0.82250
C200        C  0.35185212  0.66321770  0.58613980     0.97100
O201        O  0.32883091  0.65359750  0.57731127    -0.71370
O202        O  0.30931007  0.64787016  0.62747899    -0.74960
Al203      Al  0.29409639  0.66330165  0.59489231     1.48980
C204        C  0.30110584  0.65508541  0.65120591     0.92360
O205        O  0.33007517  0.71642117  0.64772656    -0.81180
O206        O  0.30075010  0.74757906  0.57653877    -0.74740
Al207      Al  0.29348473  0.71308922  0.63476876     1.90120
O208        O  0.34790289  0.73619833  0.61021483    -0.73810
O209        O  0.30883556  0.70294062  0.54551676    -0.73660
O210        O  0.35577223  0.68920209  0.58391785    -0.79320
O211        O  0.27644889  0.67543288  0.56248732    -0.77520
O212        O  0.30466317  0.69801701  0.60324654    -1.13650
O213        O  0.25790692  0.66601687  0.61169926    -0.72850
C214        C  0.24449178  0.68674472  0.62108391     0.97870
C215        C  0.34912569  0.73040970  0.63621832     0.94260
Al216      Al  0.32686514  0.71728708  0.58023698     1.55560
O217        O  0.29169207  0.67925816  0.65568924    -0.77470
C218        C  0.28475268  0.69147890  0.54353877     0.98430
C219        C  0.29053877  0.76047033  0.59715102     0.93310
O220        O  0.29237863  0.75060624  0.62153792    -0.82790
O221        O  0.61582791  0.46015575  0.51544615    -0.82250
C222        C  0.65797733  0.41010428  0.60695013     0.97100
O223        O  0.66668894  0.40137706  0.58354830    -0.71370
O224        O  0.61596741  0.39593476  0.56643958    -0.74960
Al225      Al  0.64745401  0.41206324  0.55018501     1.48980
C226        C  0.59147388  0.40441708  0.56302580     0.92360
O227        O  0.59666201  0.46535766  0.59115935    -0.81180
O228        O  0.66645885  0.49614160  0.55858716    -0.74740
Al229      Al  0.60754194  0.46218492  0.55366945     1.90120
O230        O  0.63539802  0.48413821  0.60686967    -0.73810
O231        O  0.69766819  0.45055792  0.56390510    -0.73660
O232        O  0.66104553  0.43582742  0.61205655    -0.79320
O233        O  0.67901241  0.42473984  0.53128256    -0.77520
O234        O  0.63961394  0.44656862  0.56242613    -1.13650
O235        O  0.62920049  0.41609510  0.51521957    -0.72850
C236        C  0.62092185  0.43777818  0.50258130     0.97870
C237        C  0.60934602  0.47930413  0.60939800     0.94260
Al238      Al  0.66387453  0.46494471  0.58392214     1.55560
O239        O  0.58645296  0.42849731  0.55331274    -0.77470
C240        C  0.69861407  0.43997574  0.53936596     0.98430
C241        C  0.64527885  0.50966191  0.55017214     0.93310
O242        O  0.62103720  0.49955589  0.55223709    -0.82790
O243        O  0.62052878  0.25809091  0.73279718    -0.82250
C244        C  0.57800002  0.34461141  0.67435168     0.97100
O245        O  0.57068462  0.32035282  0.66662847    -0.71370
O246        O  0.62155245  0.30335085  0.66431285    -0.74960
Al247      Al  0.58973309  0.28779468  0.68051491     1.48980
C248        C  0.64552443  0.29702525  0.67244997     0.92360
O249        O  0.63798364  0.33405152  0.72910734    -0.81180
O250        O  0.56859869  0.30049290  0.76245381    -0.74740
Al251      Al  0.62828245  0.29612280  0.73059082     1.90120
O252        O  0.59911332  0.34894835  0.74875282    -0.73810
O253        O  0.53786994  0.30348680  0.71612911    -0.73660
O254        O  0.57405507  0.35103169  0.69967518    -0.79320
O255        O  0.55796370  0.26957003  0.69307033    -0.77520
O256        O  0.59624989  0.30259176  0.71386857    -1.13650
O257        O  0.60821393  0.25301101  0.68862775    -0.72850
C258        C  0.61735679  0.24308782  0.71146585     0.97870
C259        C  0.62519921  0.35180076  0.74372265     0.94260
Al260      Al  0.57113443  0.32462567  0.73023531     1.55560
O261        O  0.65023580  0.29089425  0.69761567    -0.77470
C262        C  0.53748888  0.27848100  0.70661257     0.98430
C263        C  0.58988309  0.29447754  0.77705896     0.93310
O264        O  0.61423432  0.29892895  0.76790344    -0.82790
O265        O  0.51063519  0.60893761  0.46825170    -0.82250
C266        C  0.60662734  0.65121610  0.42945068     0.97100
O267        O  0.58463280  0.65938276  0.41704603    -0.71370
O268        O  0.56598802  0.61006530  0.40746434    -0.74960
Al269      Al  0.54938496  0.64158824  0.42376925     1.48980
C270        C  0.55627533  0.58635498  0.41234250     0.92360
O271        O  0.58537331  0.58780504  0.47719074    -0.81180
O272        O  0.54879985  0.65567874  0.50940773    -0.74740
Al273      Al  0.54809142  0.59926408  0.47197569     1.90120
O274        O  0.59834165  0.62566073  0.49996550    -0.73810
O275        O  0.55809008  0.68997264  0.46737622    -0.73660
O276        O  0.60816026  0.65467698  0.45549927    -0.79320
O277        O  0.53071698  0.67362615  0.43488296    -0.77520
O278        O  0.55808217  0.63215080  0.45896160    -1.13650
O279        O  0.51280086  0.62427483  0.42469875    -0.72850
C280        C  0.49939172  0.61348646  0.44491008     0.97870
C281        C  0.60189308  0.59999466  0.49375518     0.94260
Al282      Al  0.57709594  0.65533638  0.48102889     1.55560
O283        O  0.54764550  0.58010446  0.43653278    -0.77470
C284        C  0.53629988  0.69237580  0.45209437     0.98430
C285        C  0.54049661  0.63353588  0.52117026     0.93310
O286        O  0.54474325  0.60998442  0.51016931    -0.82790
O287        O  0.71282666  0.61112185  0.26495041    -0.82250
C288        C  0.67524244  0.57354684  0.36460849     0.97100
O289        O  0.66296606  0.56448291  0.34305999    -0.71370
O290        O  0.65411348  0.61303393  0.32197377    -0.74960
Al291      Al  0.66950332  0.58088745  0.30708006     1.48980
C292        C  0.66049029  0.63697998  0.31381558     0.92360
O293        O  0.72497473  0.63529537  0.33858063    -0.81180
O294        O  0.75569208  0.56486448  0.30756405    -0.74740
Al295      Al  0.71843762  0.62201259  0.30220270     1.90120
O296        O  0.74631144  0.59776429  0.35480879    -0.73810
O297        O  0.71266223  0.53243723  0.31809501    -0.73660
O298        O  0.70136465  0.57064858  0.36610330    -0.79320
O299        O  0.68007343  0.54810511  0.29004676    -0.77520
O300        O  0.70509059  0.59008547  0.31461997    -1.13650
O301        O  0.66938390  0.59657500  0.27010996    -0.72850
C302        C  0.68911566  0.60551277  0.25493081     0.97870
C303        C  0.74041139  0.62365705  0.35658558     0.94260
Al304      Al  0.72691861  0.56757288  0.33521699     1.55560
O305        O  0.68398390  0.64212402  0.30305182    -0.77470
C306        C  0.69719061  0.52941204  0.29653673     0.98430
C307        C  0.76753795  0.58610706  0.29736125     0.93310
O308        O  0.75603768  0.60982671  0.29819178    -0.82790
O309        O  0.96313343  0.12629335  0.51023368    -0.82250
C310        C  0.88872945  0.14694453  0.42463675     0.97100
O311        O  0.88662740  0.16104266  0.44720249    -0.71370
O312        O  0.88394899  0.12600084  0.48825351    -0.74960
Al313      Al  0.90947256  0.15595243  0.48146797     1.48980
C314        C  0.89013135  0.10366784  0.50085315     0.92360
O315        O  0.93479715  0.08151392  0.45297834    -0.81180
O316        O  0.98481821  0.14716427  0.44192879    -0.74740
Al317      Al  0.94831100  0.10502410  0.48140142     1.90120
O318        O  0.95320271  0.10584431  0.41851126    -0.73810
O319        O  0.94378730  0.18312118  0.43397333    -0.73660
O320        O  0.91230068  0.13940757  0.41603452    -0.79320
O321        O  0.93376606  0.18832144  0.47783962    -0.77520
O322        O  0.93485424  0.13478547  0.46453885    -1.13650
O323        O  0.92587943  0.15199545  0.51881762    -0.72850
C324        C  0.94881056  0.14090495  0.52667236     0.97870
C325        C  0.94311503  0.08334660  0.42798292     0.94260
Al326      Al  0.94731149  0.14356207  0.43033886     1.55560
O327        O  0.91529652  0.09577387  0.50257196    -0.77470
C328        C  0.94725196  0.19615898  0.45649009     0.98430
C329        C  0.99730209  0.12623544  0.45199434     0.93310
O330        O  0.98426736  0.10720458  0.46487711    -0.82790
O331        O  0.72872130  0.09174507  0.28264748    -0.82250
C332        C  0.81875239  0.07988582  0.35267035     0.97100
O333        O  0.79725769  0.06453143  0.35765178    -0.71370
O334        O  0.75399909  0.09638963  0.35953955    -0.74960
Al335      Al  0.76128920  0.06516931  0.33592068     1.48980
C336        C  0.74268681  0.11913371  0.35250508     0.92360
O337        O  0.78782502  0.13775320  0.30400066    -0.81180
O338        O  0.79594837  0.06767261  0.25937452    -0.74740
Al339      Al  0.75869916  0.11355919  0.29360929     1.90120
O340        O  0.82089993  0.11289707  0.28432537    -0.73810
O341        O  0.80848147  0.03721753  0.30365010    -0.73660
O342        O  0.82611033  0.08395150  0.32798650    -0.79320
O343        O  0.76513612  0.03088914  0.31335943    -0.77520
O344        O  0.77637632  0.08495568  0.30841429    -1.13650
O345        O  0.72314299  0.06625339  0.32071654    -0.72850
C346        C  0.71375626  0.07642026  0.29791817     0.97870
C347        C  0.81282052  0.13506750  0.29610544     0.94260
Al348      Al  0.81018501  0.07573488  0.29496941     1.55560
O349        O  0.74011991  0.12565981  0.32705666    -0.77470
C350        C  0.78652732  0.02363049  0.29957272     0.98430
C351        C  0.78560725  0.08724130  0.24511172     0.93310
O352        O  0.77326267  0.10778216  0.25654511    -0.82790
O353        O  0.71490481  0.74485414  0.11164022    -0.82250
C354        C  0.63663982  0.66395860  0.08824426     0.97100
O355        O  0.63665525  0.68654043  0.07381155    -0.71370
O356        O  0.63521681  0.72773246  0.10789542    -0.74960
Al357      Al  0.66127076  0.71923907  0.07910077     1.48980
C358        C  0.64099817  0.73870717  0.13098087     0.92360
O359        O  0.68138516  0.68796325  0.15434623    -0.81180
O360        O  0.73367563  0.67557892  0.09032524    -0.74740
Al361      Al  0.69772450  0.71611448  0.13175252     1.90120
O362        O  0.69924049  0.65304603  0.13046421    -0.73810
O363        O  0.69362047  0.66982510  0.05324960    -0.73660
O364        O  0.65921748  0.65306828  0.09595372    -0.79320
O365        O  0.68609434  0.71409210  0.04742729    -0.77520
O366        O  0.68466485  0.70058675  0.10121283    -1.13650
O367        O  0.68022486  0.75528210  0.08308763    -0.72850
C368        C  0.70304654  0.76169572  0.09512908     0.97870
C369        C  0.68788405  0.66241907  0.15235472     0.94260
Al370      Al  0.69543163  0.66569574  0.09275605     1.55560
O371        O  0.66575013  0.73881642  0.13997580    -0.77470
C372        C  0.69901422  0.69216058  0.04039898     0.98430
C373        C  0.74579598  0.68375275  0.11213411     0.93310
O374        O  0.73283277  0.69724658  0.13080175    -0.82790
O375        O  0.48050743  0.52012231  0.14486334    -0.82250
C376        C  0.56916063  0.59101727  0.15558136     0.97100
O377        O  0.54853265  0.59465270  0.17242736    -0.71370
O378        O  0.50478623  0.59780570  0.14209778    -0.74960
Al379      Al  0.51300688  0.57276640  0.17201307     1.48980
C380        C  0.49176995  0.59173766  0.12017456     0.92360
O381        O  0.53676942  0.54484555  0.09753224    -0.81180
O382        O  0.54892927  0.49604781  0.16387905    -0.74740
Al383      Al  0.50905186  0.53303503  0.12232998     1.90120
O384        O  0.57167877  0.52502632  0.11994681    -0.73810
O385        O  0.56114243  0.53785347  0.19732481    -0.73660
O386        O  0.57822474  0.56677878  0.15153305    -0.79320
O387        O  0.51809944  0.54908929  0.20500056    -0.77520
O388        O  0.52786900  0.54634644  0.15076094    -1.13650
O389        O  0.47471859  0.55694678  0.17177362    -0.72850
C390        C  0.46569465  0.53413297  0.16138824     0.97870
C391        C  0.56169098  0.53616700  0.09813578     0.94260
Al392      Al  0.56225389  0.53264337  0.15805832     1.55560
O393        O  0.48896593  0.56658531  0.11294001    -0.77470
C394        C  0.53924877  0.53451551  0.21143321     0.98430
C395        C  0.53713966  0.48337502  0.14413629     0.93310
O396        O  0.52416479  0.49639867  0.12507548    -0.82790
O397        O  0.03948458  0.62578975  0.98095419    -0.82250
C398        C  0.10649197  0.65297695  0.06949264     0.97100
O399        O  0.10723264  0.66856665  0.04761173    -0.71370
O400        O  0.11449733  0.63611829  0.00476688    -0.74960
Al401      Al  0.08582978  0.66325412  0.01260217     1.48980
C402        C  0.11134546  0.61138136  0.99630041     0.92360
O403        O  0.06504308  0.58658291  0.04393612    -0.81180
O404        O  0.01129324  0.65012102  0.04898705    -0.74740
Al405      Al  0.05265471  0.60811792  0.01309625     1.90120
O406        O  0.04171699  0.61045557  0.07512959    -0.73810
O407        O  0.05128732  0.68702654  0.06027894    -0.73660
O408        O  0.08360418  0.64386110  0.07867489    -0.79320
O409        O  0.05819825  0.69360595  0.01645153    -0.77520
O410        O  0.06246713  0.63950110  0.02912770    -1.13650
O411        O  0.07034024  0.65939085  0.97534112    -0.72850
C412        C  0.05051933  0.64448179  0.96617672     0.97870
C413        C  0.05388303  0.58845451  0.06763968     0.94260
Al414      Al  0.04827725  0.64759339  0.06304932     1.55560
O415        O  0.08769005  0.59999092  0.99663533    -0.77470
C416        C  0.04459164  0.69965378  0.03826823     0.98430
C417        C  0.00036420  0.62934834  0.03692221     0.93310
O418        O  0.01518304  0.61025755  0.02595422    -0.82790
O419        O  0.25373907  0.59111583  0.22177377    -0.82250
C420        C  0.17031284  0.58498088  0.14421295     0.97100
O421        O  0.19057557  0.56747399  0.14185853    -0.71370
O422        O  0.23263352  0.59995126  0.14299390    -0.74960
Al423      Al  0.22476110  0.56845717  0.16548211     1.48980
C424        C  0.24481177  0.62166614  0.15110496     0.92360
O425        O  0.19881241  0.64120221  0.19826661    -0.81180
O426        O  0.18293413  0.57133606  0.23969371    -0.74740
Al427      Al  0.22576733  0.61501346  0.20901837     1.90120
O428        O  0.16217284  0.61715984  0.21220647    -0.73810
O429        O  0.17559284  0.54070783  0.19493364    -0.73660
O430        O  0.15949990  0.58873502  0.16773159    -0.79320
O431        O  0.21968539  0.53439946  0.18731713    -0.77520
O432        O  0.20787058  0.58794530  0.19223725    -1.13650
O433        O  0.26238193  0.56938340  0.18241791    -0.72850
C434        C  0.27026837  0.57782406  0.20636236     0.97870
C435        C  0.17364608  0.64011313  0.20599305     0.94260
Al436      Al  0.17269504  0.57966046  0.20262520     1.55560
O437        O  0.24711351  0.62707859  0.17686125    -0.77470
C438        C  0.19773065  0.52729979  0.20019894     0.98430
C439        C  0.19350468  0.59009467  0.25463087     0.93310
O440        O  0.20846747  0.60928280  0.24432841    -0.82790
O441        O  0.87661592  0.51078234  0.01686847    -0.82250
C442        C  0.83722863  0.56302705  0.10801460     0.97100
O443        O  0.83021545  0.57353066  0.08452545    -0.71370
O444        O  0.87884567  0.57843328  0.06267707    -0.74960
Al445      Al  0.84631010  0.56144563  0.04951880     1.48980
C446        C  0.90242697  0.57075355  0.05441817     0.92360
O447        O  0.89750933  0.51161530  0.09208001    -0.81180
O448        O  0.82792763  0.47836470  0.05878676    -0.74740
Al449      Al  0.88629317  0.51172005  0.05443593     1.90120
O450        O  0.85948709  0.49037926  0.10709404    -0.73810
O451        O  0.79582338  0.52302693  0.06583282    -0.73660
O452        O  0.83279860  0.53741717  0.11242008    -0.79320
O453        O  0.81336624  0.54920626  0.03291713    -0.77520
O454        O  0.85424268  0.52751818  0.06276622    -1.13650
O455        O  0.86272996  0.55470075  0.01311155    -0.72850
C456        C  0.87292188  0.53256472  0.00248754     0.97870
C457        C  0.88535443  0.49629974  0.10985270     0.94260
Al458      Al  0.83025798  0.50899198  0.08457696     1.55560
O459        O  0.90723840  0.54542198  0.04896499    -0.77470
C460        C  0.79393665  0.53412402  0.04162329     0.98430
C461        C  0.84939778  0.46460930  0.05168569     0.93310
O462        O  0.87356971  0.47389359  0.05653789    -0.82790
O463        O  0.87058517  0.72507612  0.21780631    -0.82250
C464        C  0.91133063  0.62636210  0.18149930     0.97100
O465        O  0.92129789  0.64831185  0.17067973    -0.71370
O466        O  0.87119814  0.66684546  0.16002400    -0.74960
Al467      Al  0.90264684  0.68329357  0.17628921     1.48980
C468        C  0.84662310  0.67334069  0.16655583     0.92360
O469        O  0.84714269  0.65131897  0.23147554    -0.81180
O470        O  0.91658588  0.68223828  0.26285278    -0.74740
Al471      Al  0.86018453  0.68766553  0.22420729     1.90120
O472        O  0.88450025  0.63500535  0.25278779    -0.73810
O473        O  0.94955158  0.67183920  0.21970654    -0.73660
O474        O  0.91182252  0.62418837  0.20772169    -0.79320
O475        O  0.93403715  0.70206006  0.18889694    -0.77520
O476        O  0.89238358  0.67541236  0.21161557    -1.13650
O477        O  0.88568787  0.71922677  0.17476950    -0.72850
C478        C  0.87691004  0.73477276  0.19410723     0.97870
C479        C  0.85875726  0.63319022  0.24675683     0.94260
Al480      Al  0.91450764  0.65473043  0.23373167     1.55560
O481        O  0.84099398  0.68508994  0.18948265    -0.77470
C482        C  0.95180498  0.69520764  0.20687133     0.98430
C483        C  0.89523129  0.69313265  0.27404626     0.93310
O484        O  0.87185803  0.69284264  0.26186022    -0.82790
O485        O  0.51045523  0.95749873  0.15118664    -0.82250
C486        C  0.41853259  0.88956625  0.15499147     0.97100
O487        O  0.43813892  0.88476528  0.17284170    -0.71370
O488        O  0.48197046  0.88085823  0.14273854    -0.74960
Al489      Al  0.47506625  0.90464658  0.17343411     1.48980
C490        C  0.49611383  0.88735440  0.12159834     0.92360
O491        O  0.45599578  0.93759934  0.09951110    -0.81180
O492        O  0.44312140  0.98269029  0.16835655    -0.74740
Al493      Al  0.48284149  0.94687504  0.12620720     1.90120
O494        O  0.42116922  0.95793829  0.12139501    -0.73810
O495        O  0.42751122  0.93875642  0.19809891    -0.73660
O496        O  0.41168056  0.91435241  0.14990715    -0.79320
O497        O  0.47040264  0.92763799  0.20702572    -0.77520
O498        O  0.46223417  0.93265275  0.15283383    -1.13650
O499        O  0.51468257  0.91745126  0.17332464    -0.72850
C500        C  0.52530913  0.94015983  0.16406740     0.97870
C501        C  0.43108059  0.94621695  0.09987320     0.94260
Al502      Al  0.42834555  0.94726058  0.15937189     1.55560
O503        O  0.50150787  0.91262161  0.11601679    -0.77470
C504        C  0.44882046  0.94180881  0.21311629     0.98430
C505        C  0.45670936  0.99613157  0.15022217     0.93310
O506        O  0.46921044  0.98378936  0.13043858    -0.82790
O507        O  0.27977670  0.73201525  0.11965963    -0.82250
C508        C  0.34943797  0.81666874  0.08809637     0.97100
O509        O  0.35066934  0.79357432  0.07449879    -0.71370
O510        O  0.35525933  0.75115954  0.10764575    -0.74960
Al511      Al  0.32743907  0.75968291  0.08031036     1.48980
C512        C  0.35184912  0.74376975  0.13263125     0.92360
O513        O  0.30790073  0.79584526  0.15453147    -0.81180
O514        O  0.25374990  0.79879486  0.09114356    -0.74740
Al515      Al  0.29416839  0.76433751  0.13526703     1.90120
O516        O  0.28507812  0.82636911  0.12914455    -0.73810
O517        O  0.29326003  0.80742106  0.05325960    -0.73660
O518        O  0.32624513  0.82690940  0.09509052    -0.79320
O519        O  0.30121527  0.76340349  0.04921331    -0.77520
O520        O  0.30435160  0.77817548  0.10280458    -1.13650
O521        O  0.30966630  0.72342063  0.08563982    -0.72850
C522        C  0.28960805  0.71595664  0.10138893     0.97870
C523        C  0.29764932  0.81990428  0.15130068     0.94260
Al524      Al  0.29088574  0.81199156  0.09261108     1.55560
O525        O  0.32849216  0.74653334  0.14436876    -0.77470
C526        C  0.28795366  0.78482328  0.04124167     0.98430
C527        C  0.24262882  0.78856983  0.11282336     0.93310
O528        O  0.25710630  0.77855781  0.13269997    -0.82790
O529        O  0.74878804  0.08768773  0.72647587    -0.82250
C530        C  0.66965862  0.08143161  0.64525059     0.97100
O531        O  0.69005232  0.06400188  0.64421963    -0.71370
O532        O  0.73083538  0.09853272  0.64657283    -0.74960
Al533      Al  0.72327031  0.06656124  0.66883221     1.48980
C534        C  0.74399106  0.11935803  0.65561123     0.92360
O535        O  0.69605549  0.13880225  0.70046739    -0.81180
O536        O  0.67771233  0.06964559  0.74192488    -0.74740
Al537      Al  0.72214655  0.11246146  0.71254418     1.90120
O538        O  0.65843222  0.11459105  0.71175858    -0.73810
O539        O  0.67360046  0.03782434  0.69731080    -0.73660
O540        O  0.65762349  0.08546239  0.66809268    -0.79320
O541        O  0.71821546  0.03257925  0.69083957    -0.77520
O542        O  0.70493397  0.08563162  0.69491800    -1.13650
O543        O  0.76079780  0.06909791  0.68660292    -0.72850
C544        C  0.76739245  0.07768171  0.71090526     0.97870
C545        C  0.67036511  0.13751234  0.70632386     0.94260
Al546      Al  0.66948269  0.07703608  0.70384907     1.55560
O547        O  0.74537870  0.12418323  0.68156868    -0.77470
C548        C  0.69595938  0.02485949  0.70298784     0.98430
C549        C  0.68702152  0.08918055  0.75676374     0.93310
O550        O  0.70300555  0.10758892  0.74675362    -0.82790
O551        O  0.52477045  0.11841999  0.50077987    -0.82250
C552        C  0.60317200  0.15201435  0.57688453     0.97100
O553        O  0.60147526  0.16561036  0.55384644    -0.71370
O554        O  0.60316247  0.12862175  0.51484383    -0.74960
Al555      Al  0.57620365  0.15704799  0.52263461     1.48980
C556        C  0.59838278  0.10357868  0.50857777     0.92360
O557        O  0.55920751  0.08495618  0.56376241    -0.81180
O558        O  0.50520827  0.14845025  0.56933697    -0.74740
Al559      Al  0.54235104  0.10333214  0.53274097     1.90120
O560        O  0.54059487  0.11212672  0.59547893    -0.73810
O561        O  0.54550983  0.18687477  0.57076644    -0.73660
O562        O  0.58137846  0.14603591  0.59029449    -0.79320
O563        O  0.55046155  0.18852607  0.52595053    -0.77520
O564        O  0.55424450  0.13604081  0.54419931    -1.13650
O565        O  0.55654385  0.14930467  0.48817035    -0.72850
C566        C  0.53532559  0.13444889  0.48268712     0.97870
C567        C  0.55260106  0.08971291  0.58883344     0.94260
Al568      Al  0.54416411  0.14790321  0.57852795     1.55560
O569        O  0.57458879  0.09312501  0.51224701    -0.77470
C570        C  0.53882089  0.19770304  0.54776198     0.98430
C571        C  0.49363838  0.12571874  0.56245813     0.93310
O572        O  0.50726251  0.10631576  0.55071904    -0.82790
O573        O  0.36754187  0.01765974  0.51552573    -0.82250
C574        C  0.32634948  0.06155401  0.60997722     0.97100
O575        O  0.31660197  0.07121643  0.58730413    -0.71370
O576        O  0.36599165  0.08039910  0.56747071    -0.74960
Al577      Al  0.33444657  0.06286234  0.55261457     1.48980
C578        C  0.39074341  0.07341965  0.56282050     0.92360
O579        O  0.38973669  0.01195968  0.59042770    -0.81180
O580        O  0.32151054  0.97695901  0.55890873    -0.74740
Al581      Al  0.37751977  0.01524294  0.55325318     1.90120
O582        O  0.35275390  0.98990346  0.60641658    -0.73810
O583        O  0.28754716  0.01988607  0.56695441    -0.73660
O584        O  0.32410952  0.03555116  0.61413512    -0.79320
O585        O  0.30232172  0.04944053  0.53519976    -0.77520
O586        O  0.34478865  0.02841902  0.56344368    -1.13650
O587        O  0.35094631  0.06072729  0.51660848    -0.72850
C588        C  0.36030771  0.03994084  0.50335141     0.97870
C589        C  0.37832023  0.99667274  0.60860952     0.94260
Al590      Al  0.32258582  0.00750358  0.58510103     1.55560
O591        O  0.39656212  0.04998091  0.55238143    -0.77470
C592        C  0.28435442  0.03240484  0.54358670     0.98430
C593        C  0.34351516  0.96525307  0.54994720     0.93310
O594        O  0.36686782  0.97717647  0.55168367    -0.82790
O595        O  0.36805488  0.21730718  0.72594306    -0.82250
C596        C  0.40910200  0.12546752  0.67447441     0.97100
O597        O  0.41694520  0.14911983  0.66563853    -0.71370
O598        O  0.36516622  0.16528890  0.66278104    -0.74960
Al599      Al  0.39728086  0.18198502  0.67686818     1.48980
C600        C  0.34115456  0.16975657  0.67213679     0.92360
O601        O  0.34899209  0.14154053  0.73238332    -0.81180
O602        O  0.41989089  0.17345696  0.76033682    -0.74740
Al603      Al  0.35982165  0.17889357  0.72869084     1.90120
O604        O  0.38852973  0.12510237  0.74922359    -0.73810
O605        O  0.44918719  0.16941081  0.71383323    -0.73660
O606        O  0.41270478  0.12033552  0.70014564    -0.79320
O607        O  0.42899387  0.20122389  0.68775380    -0.77520
O608        O  0.39117299  0.16992940  0.71179362    -1.13650
O609        O  0.37840117  0.21657347  0.68107747    -0.72850
C610        C  0.37050486  0.22940730  0.70264678     0.97870
C611        C  0.36219236  0.12301040  0.74564594     0.94260
Al612      Al  0.41628455  0.14844442  0.72922116     1.55560
O613        O  0.33737438  0.17954983  0.69624000    -0.77470
C614        C  0.44916234  0.19391311  0.70277446     0.98430
C615        C  0.39921414  0.18201131  0.77439440     0.93310
O616        O  0.37466357  0.17993761  0.76522584    -0.82790
O617        O  0.52963554  0.99585907  0.87316265    -0.82250
C618        C  0.56331506  0.09914795  0.84022486     0.97100
O619        O  0.57629106  0.07820149  0.83078399    -0.71370
O620        O  0.58541551  0.05563025  0.87904436    -0.74960
Al621      Al  0.57085621  0.04159098  0.84593567     1.48980
C622        C  0.57959022  0.04560461  0.90253660     0.92360
O623        O  0.51295641  0.06685681  0.90249489    -0.81180
O624        O  0.48380049  0.04108397  0.83068163    -0.74740
Al625      Al  0.52199818  0.03200973  0.88669760     1.90120
O626        O  0.49332135  0.08637225  0.86555785    -0.73810
O627        O  0.52626903  0.05215682  0.79858821    -0.73660
O628        O  0.53714180  0.09961899  0.83807268    -0.79320
O629        O  0.56079931  0.02539796  0.81245622    -0.77520
O630        O  0.53487999  0.04726135  0.85566705    -1.13650
O631        O  0.57288747  0.00430642  0.85977625    -0.72850
C632        C  0.55400112  0.98754388  0.86729325     0.97870
C633        C  0.49805719  0.08592412  0.89170152     0.94260
Al634      Al  0.51238167  0.06835192  0.83431498     1.55560
O635        O  0.55666934  0.03330461  0.90701800    -0.77470
C636        C  0.54235637  0.03107500  0.79479223     0.98430
C637        C  0.47213812  0.02986470  0.85140275     0.93310
O638        O  0.48464658  0.02744209  0.87440609    -0.82790
O639        O  0.72732492  0.20351955  0.87189482    -0.82250
C640        C  0.62947761  0.16897839  0.91527304     0.97100
O641        O  0.65134302  0.15713666  0.92448860    -0.71370
O642        O  0.66971999  0.14673151  0.87501548    -0.74960
Al643      Al  0.68649259  0.16262661  0.90597237     1.48980
C644        C  0.67545929  0.15282903  0.85023523     0.92360
O645        O  0.65381411  0.22096806  0.85164815    -0.81180
O646        O  0.68769690  0.24859417  0.92089351    -0.74740
Al647      Al  0.68995751  0.21114385  0.86342931     1.90120
O648        O  0.63919503  0.24082555  0.89034816    -0.73810
O649        O  0.67737347  0.20547647  0.95416167    -0.73660
O650        O  0.62800363  0.19522315  0.91709837    -0.79320
O651        O  0.70585976  0.17408227  0.93736986    -0.77520
O652        O  0.67875622  0.19822480  0.89610304    -1.13650
O653        O  0.72228389  0.16091522  0.88851438    -0.72850
C654        C  0.73708802  0.17979251  0.87769154     0.97870
C655        C  0.63670791  0.23651932  0.86433082     0.94260
Al656      Al  0.65940451  0.22040052  0.91935694     1.55560
O657        O  0.68547654  0.17641703  0.84366151    -0.77470
C658        C  0.70007256  0.19134173  0.95606745     0.98430
C659        C  0.69834861  0.25962322  0.89935187     0.93310
O660        O  0.69688799  0.24797348  0.87581546    -0.82790
O661        O  0.63927466  0.97610749  0.03397994    -0.82250
C662        C  0.65037804  0.06108642  0.10855254     0.97100
O663        O  0.66696167  0.04007448  0.11166898    -0.71370
O664        O  0.63656426  0.99656284  0.11269578    -0.74960
Al665      Al  0.66663029  0.00566265  0.08810816     1.48980
C666        C  0.61472862  0.98368512  0.10595493     0.92360
O667        O  0.59267635  0.03244179  0.06054591    -0.81180
O668        O  0.65982187  0.04476618  0.01303766    -0.74740
Al669      Al  0.61712899  0.00455795  0.04800806     1.90120
O670        O  0.61617645  0.06781114  0.04278204    -0.73810
O671        O  0.69358971  0.05471005  0.05511393    -0.73660
O672        O  0.64801949  0.07194777  0.08480884    -0.79320
O673        O  0.69983704  0.01103697  0.06443846    -0.77520
O674        O  0.64582367  0.02219762  0.06234657    -1.13650
O675        O  0.66578523  0.96821948  0.07076558    -0.72850
C676        C  0.65515878  0.96025530  0.04769062     0.97870
C677        C  0.59366356  0.05740186  0.05187495     0.94260
Al678      Al  0.65417235  0.05697868  0.05008041     1.55560
O679        O  0.60715665  0.98291587  0.08069261    -0.77470
C680        C  0.70688988  0.03250550  0.05062212     0.98430
C681        C  0.63951233  0.03463754  0.99988560     0.93310
O682        O  0.62032235  0.02127346  0.01216367    -0.82790
O683        O  0.60206669  0.20025532  0.26544634    -0.82250
C684        C  0.57926298  0.12511981  0.18107386     0.97100
O685        O  0.56397032  0.12497214  0.20307535    -0.71370
O686        O  0.59658207  0.12095989  0.24546741    -0.74960
Al687      Al  0.56888033  0.14854448  0.23686640     1.48980
C688        C  0.61945270  0.12554275  0.25758410     0.92360
O689        O  0.64569126  0.16620217  0.20994206    -0.81180
O690        O  0.58477291  0.22169291  0.19597681    -0.74740
Al691      Al  0.62277516  0.18285482  0.23731924     1.90120
O692        O  0.62416510  0.18576663  0.17433786    -0.73810
O693        O  0.54623863  0.18337437  0.18746945    -0.73660
O694        O  0.58816016  0.14776951  0.17146126    -0.79320
O695        O  0.53835245  0.17542762  0.23123277    -0.77520
O696        O  0.59252168  0.17150201  0.21998382    -1.13650
O697        O  0.57245440  0.16596313  0.27379223    -0.72850
C698        C  0.58506259  0.18807825  0.28142665     0.97870
C699        C  0.64500877  0.17300760  0.18440334     0.94260
Al700      Al  0.58592011  0.18359401  0.18511475     1.55560
O701        O  0.62877206  0.15005462  0.25959092    -0.77470
C702        C  0.53278168  0.18919477  0.20926794     0.98430
C703        C  0.60700299  0.23237607  0.20504305     0.93310
O704        O  0.62425550  0.21820328  0.21927400    -0.82790
O705        O  0.98124890  0.01200746  0.64404088    -0.82250
C706        C  0.06569795  0.08914467  0.65836389     0.97100
O707        O  0.04378606  0.09076511  0.67371525    -0.71370
O708        O  0.00173826  0.09150869  0.64074224    -0.74960
Al709      Al  0.00972122  0.06686467  0.67063641     1.48980
C710        C  0.98892868  0.08503468  0.61882138     0.92360
O711        O  0.03495859  0.04010747  0.59515055    -0.81180
O712        O  0.05121887  0.99291214  0.66163104    -0.74740
Al713      Al  0.00840684  0.02696887  0.62081806     1.90120
O714        O  0.07169244  0.02443520  0.61823572    -0.73810
O715        O  0.05907383  0.03440507  0.69617525    -0.73660
O716        O  0.07438841  0.06572050  0.65066439    -0.79320
O717        O  0.01508674  0.04298266  0.70304054    -0.77520
O718        O  0.02643476  0.04163452  0.64914344    -1.13650
O719        O  0.97219899  0.04960622  0.66863211    -0.72850
C720        C  0.96470437  0.02606430  0.65873251     0.97870
C721        C  0.06016139  0.03230470  0.59578290     0.94260
Al722      Al  0.06138336  0.03047867  0.65645255     1.55560
O723        O  0.98627635  0.05971000  0.61178473    -0.77470
C724        C  0.03703340  0.02987813  0.70990632     0.98430
C725        C  0.04098896  0.97955574  0.64156924     0.93310
O726        O  0.02614687  0.99138126  0.62314442    -0.82790
O727        O  0.20246389  0.24363441  0.62042980    -0.82250
C728        C  0.13610031  0.15826551  0.58735034     0.97100
O729        O  0.13151162  0.18201098  0.57573596    -0.71370
O730        O  0.12535624  0.22305549  0.60871698    -0.74960
Al731      Al  0.15387555  0.21635030  0.58093828     1.48980
C732        C  0.12885342  0.23208710  0.63308394     0.92360
O733        O  0.17033998  0.18050268  0.65379373    -0.81180
O734        O  0.23009844  0.17999083  0.59669188    -0.74740
Al735      Al  0.18625146  0.21182796  0.63616206     1.90120
O736        O  0.19304925  0.14962594  0.62821429    -0.73810
O737        O  0.19825992  0.17349360  0.55418649    -0.73660
O738        O  0.16024229  0.14820601  0.58634608    -0.79320
O739        O  0.17991427  0.21453721  0.54847891    -0.77520
O740        O  0.17776821  0.19830169  0.60284204    -1.13650
O741        O  0.17087536  0.25295893  0.58763205    -0.72850
C742        C  0.19085814  0.26044248  0.60363294     0.97870
C743        C  0.17961948  0.15605127  0.64997540     0.94260
Al744      Al  0.19382708  0.16586136  0.59201110     1.55560
O745        O  0.15268427  0.23141658  0.64385846    -0.77470
C746        C  0.19778946  0.19617697  0.54136581     0.98430
C747        C  0.23864099  0.18572087  0.62065635     0.93310
O748        O  0.22243703  0.19595816  0.63861170    -0.82790
O749        O  0.01215115  0.86320329  0.52345159    -0.82250
C750        C  0.10300959  0.81756943  0.57312947     0.97100
O751        O  0.07929147  0.80937062  0.58144239    -0.71370
O752        O  0.06406987  0.86080218  0.58636785    -0.74960
Al753      Al  0.04675680  0.83013515  0.57096907     1.48980
C754        C  0.05909533  0.88539881  0.57926532     0.92360
O755        O  0.08872081  0.87958740  0.51742062    -0.81180
O756        O  0.05433453  0.81066378  0.48713858    -0.74740
Al757      Al  0.05084823  0.87005335  0.52091629     1.90120
O758        O  0.10304133  0.84019519  0.49868055    -0.73810
O759        O  0.05861007  0.77952026  0.53277983    -0.73660
O760        O  0.10817260  0.81495892  0.54734148    -0.79320
O761        O  0.02681087  0.79954416  0.55876381    -0.77520
O762        O  0.05883594  0.83761012  0.53644822    -1.13650
O763        O  0.01266564  0.84986167  0.56756353    -0.72850
C764        C  0.00000879  0.85943012  0.54652579     0.97870
C765        C  0.10615483  0.86624111  0.50291805     0.94260
Al766      Al  0.07970690  0.81263722  0.51820434     1.55560
O767        O  0.05087810  0.89140297  0.55489794    -0.77470
C768        C  0.03401118  0.77967116  0.54345303     0.98430
C769        C  0.04634675  0.83194711  0.47347794     0.93310
O770        O  0.04877598  0.85624427  0.48347467    -0.82790
O771        O  0.20985965  0.85287056  0.73303897    -0.82250
C772        C  0.16585069  0.89939400  0.64026799     0.97100
O773        O  0.15649338  0.90852614  0.66335151    -0.71370
O774        O  0.14749067  0.85894141  0.68197112    -0.74960
Al775      Al  0.16539558  0.88948865  0.69756551     1.48980
C776        C  0.15441382  0.83393042  0.68495917     0.92360
O777        O  0.21693895  0.83660558  0.65659553    -0.81180
O778        O  0.25027554  0.90388614  0.69084722    -0.74740
Al779      Al  0.21306679  0.84641937  0.69432240     1.90120
O780        O  0.23837039  0.87451044  0.64249317    -0.73810
O781        O  0.20657003  0.93757474  0.68354341    -0.73660
O782        O  0.19173992  0.90200875  0.63584461    -0.79320
O783        O  0.17964500  0.92053161  0.71625297    -0.77520
O784        O  0.19955921  0.87962484  0.68588912    -1.13650
O785        O  0.16750907  0.87114378  0.73269945    -0.72850
C786        C  0.18724321  0.85889273  0.74518358     0.97870
C787        C  0.23228038  0.84896098  0.63917563     0.94260
Al788      Al  0.21983688  0.90318527  0.66474958     1.55560
O789        O  0.17853379  0.82710194  0.69306222    -0.77470
C790        C  0.19588245  0.93925332  0.70789152     0.98430
C791        C  0.26254707  0.88181524  0.69898242     0.93310
O792        O  0.25091627  0.85822579  0.69724472    -0.82790
O793        O  0.84365347  0.97491084  0.97027951    -0.82250
C794        C  0.83453036  0.05729744  0.89076160     0.97100
O795        O  0.81673535  0.03737041  0.89058195    -0.71370
O796        O  0.84993028  0.99437495  0.88982378    -0.74960
Al797      Al  0.81950940  0.00358029  0.91436884     1.48980
C798        C  0.87095712  0.98015960  0.89731584     0.92360
O799        O  0.89536259  0.02605818  0.94150932    -0.81180
O800        O  0.82934998  0.04666591  0.98715425    -0.74740
Al801      Al  0.86850280  0.00101381  0.95502515     1.90120
O802        O  0.87344109  0.06444470  0.95477290    -0.73810
O803        O  0.79511863  0.05408926  0.94549896    -0.73660
O804        O  0.84172734  0.06790258  0.91341004    -0.79320
O805        O  0.78713466  0.01010145  0.93865524    -0.77520
O806        O  0.84124280  0.02003680  0.93936346    -1.13650
O807        O  0.82093483  0.96618760  0.93150417    -0.72850
C808        C  0.83016034  0.95828448  0.95519040     0.97870
C809        C  0.89545776  0.05170459  0.94753785     0.94260
Al810      Al  0.83498186  0.05563391  0.94927405     1.55560
O811        O  0.87704519  0.97782034  0.92298848    -0.77470
C812        C  0.78134906  0.03242750  0.95172234     0.98430
C813        C  0.84898648  0.03607703  0.00099914     0.93310
O814        O  0.86665442  0.01984593  0.98992924    -0.82790
O815        O  0.88774478  0.20860268  0.74552208    -0.82250
C816        C  0.90403470  0.12643684  0.82410313     0.97100
O817        O  0.91998937  0.12686837  0.80259822    -0.71370
O818        O  0.88559694  0.12755085  0.76085922    -0.74960
Al819      Al  0.91571985  0.15222332  0.76998171     1.48980
C820        C  0.86312195  0.13473036  0.74905065     0.92360
O821        O  0.84130089  0.17496733  0.79726092    -0.81180
O822        O  0.90573648  0.22359130  0.81568207    -0.74740
Al823      Al  0.86537429  0.19114084  0.77172909     1.90120
O824        O  0.86300448  0.18924899  0.83506037    -0.73810
O825        O  0.94173728  0.18268685  0.82076448    -0.73660
O826        O  0.89740922  0.14878718  0.83588675    -0.79320
O827        O  0.94780523  0.17606778  0.77627223    -0.77520
O828        O  0.89428141  0.17599969  0.78853382    -1.13650
O829        O  0.91304247  0.17206068  0.73377300    -0.72850
C830        C  0.90306433  0.19621676  0.72821881     0.97870
C831        C  0.84132804  0.17984296  0.82306175     0.94260
Al832      Al  0.90182463  0.18521853  0.82411385     1.55560
O833        O  0.85654342  0.16026833  0.74731217    -0.77470
C834        C  0.95495405  0.18819707  0.79858353     0.98430
C835        C  0.88527612  0.23698192  0.80603429     0.93310
O836        O  0.86660209  0.22522921  0.79168272    -0.82790
O837        O  0.21361805  0.10761340  0.76230550    -0.82250
C838        C  0.17060414  0.06843347  0.85917853     0.97100
O839        O  0.16156570  0.05847020  0.83660801    -0.71370
O840        O  0.15470676  0.10952843  0.81932245    -0.74960
Al841      Al  0.16951408  0.07769667  0.80278958     1.48980
C842        C  0.16227269  0.13386577  0.81357524     0.92360
O843        O  0.22584897  0.13083948  0.83626265    -0.81180
O844        O  0.25592623  0.06021398  0.80805141    -0.74740
Al845      Al  0.21929070  0.11786256  0.79995171     1.90120
O846        O  0.24357742  0.09255882  0.85476803    -0.73810
O847        O  0.21066795  0.02883540  0.81471346    -0.73660
O848        O  0.19665393  0.06666716  0.86317282    -0.79320
O849        O  0.18121748  0.04615850  0.78407044    -0.77520
O850        O  0.20490551  0.08625870  0.81195235    -1.13650
O851        O  0.16973480  0.09518119  0.76764989    -0.72850
C852        C  0.18969306  0.10280035  0.75237808     0.97870
C853        C  0.23919011  0.11873991  0.85549330     0.94260
Al854      Al  0.22482883  0.06321555  0.83370706     1.55560
O855        O  0.18534432  0.13869676  0.80166774    -0.77470
C856        C  0.19817019  0.02742091  0.79104141     0.98430
C857        C  0.26821061  0.08093197  0.79705143     0.93310
O858        O  0.25652789  0.10455376  0.79601574    -0.82790
O859        O  0.01632007  0.09966234  0.97479159    -0.82250
C860        C  0.10231196  0.14932035  0.92264829     0.97100
O861        O  0.07812879  0.15648984  0.91401874    -0.71370
O862        O  0.06065259  0.10644632  0.90795823    -0.74960
Al863      Al  0.04513517  0.13684342  0.92611514     1.48980
C864        C  0.05756264  0.08156266  0.91496328     0.92360
O865        O  0.09379250  0.08819867  0.97425754    -0.81180
O866        O  0.05454029  0.15402719  0.00855349    -0.74740
Al867      Al  0.05505250  0.09530773  0.97413251     1.90120
O868        O  0.10491562  0.12663007  0.99639156    -0.73810
O869        O  0.05946645  0.18738036  0.96383078    -0.73660
O870        O  0.10784646  0.15311401  0.94820804    -0.79320
O871        O  0.02608657  0.16796839  0.93994412    -0.77520
O872        O  0.05977917  0.12866700  0.95928817    -1.13650
O873        O  0.01076458  0.11746784  0.93255208    -0.72850
C874        C  0.00119275  0.10502445  0.95387584     0.97870
C875        C  0.11006828  0.10126970  0.99019214     0.94260
Al876      Al  0.08026600  0.15391103  0.97760801     1.55560
O877        O  0.05316126  0.07479720  0.93999558    -0.77470
C878        C  0.03479436  0.18829619  0.95371954     0.98430
C879        C  0.04854816  0.13182196  0.02181817     0.93310
O880        O  0.05479314  0.10803614  0.01209799    -0.82790
O881        O  0.95781481  0.84920221  0.99048684    -0.82250
C882        C  0.88544614  0.82397624  0.07376409     0.97100
O883        O  0.88109586  0.81202540  0.05035047    -0.71370
O884        O  0.87866522  0.84210590  0.00796658    -0.74960
Al885      Al  0.90562751  0.81407531  0.01713653     1.48980
C886        C  0.88321793  0.86476875  0.99573047     0.92360
O887        O  0.92060556  0.88906845  0.04617747    -0.81180
O888        O  0.98064706  0.83264612  0.05653823    -0.74740
Al889      Al  0.93895286  0.86839987  0.01827200     1.90120
O890        O  0.93967776  0.86548400  0.08128232    -0.73810
O891        O  0.95020825  0.78983089  0.06219896    -0.73660
O892        O  0.90904563  0.82129328  0.08476627    -0.79320
O893        O  0.92990803  0.78133108  0.02248104    -0.77520
O894        O  0.92920654  0.83645736  0.03445014    -1.13650
O895        O  0.92557929  0.81722881  0.98107788    -0.72850
C896        C  0.94774672  0.83078546  0.97457278     0.97870
C897        C  0.92744135  0.88710374  0.07168409     0.94260
Al898      Al  0.94346413  0.82782503  0.06824032     1.55560
O899        O  0.90759031  0.87409869  0.99440086    -0.77470
C900        C  0.94784147  0.77497010  0.04093555     0.98430
C901        C  0.98891659  0.85642399  0.04973497     0.93310
O902        O  0.97319242  0.87302885  0.03684199    -0.82790
O903        O  0.73892163  0.87041262  0.21402774    -0.82250
C904        C  0.81990725  0.90183238  0.13994400     0.97100
O905        O  0.79647149  0.91492117  0.13877994    -0.71370
O906        O  0.75609288  0.88060584  0.13604823    -0.74960
Al907      Al  0.76356364  0.90853131  0.16336112     1.48980
C908        C  0.74844914  0.85589370  0.14037113     0.92360
O909        O  0.80070800  0.83542929  0.18084261    -0.81180
O910        O  0.80561091  0.89740641  0.23652164    -0.74740
Al911      Al  0.77010044  0.85426396  0.19716945     1.90120
O912        O  0.83263159  0.86071392  0.20167445    -0.73810
O913        O  0.81089404  0.93653530  0.19756482    -0.73660
O914        O  0.83077960  0.89651603  0.16316838    -0.79320
O915        O  0.76671247  0.93990422  0.18942019    -0.77520
O916        O  0.78317993  0.88675570  0.18624039    -1.13650
O917        O  0.72793743  0.90221027  0.18224852    -0.72850
C918        C  0.72180115  0.88761185  0.20367164     0.97870
C919        C  0.82556506  0.83883668  0.18890431     0.94260
Al920      Al  0.81706356  0.89742855  0.19857277     1.55560
O921        O  0.74984698  0.84535201  0.16439363    -0.77470
C922        C  0.78795381  0.94814786  0.20268203     0.98430
C923        C  0.79890334  0.87418348  0.24708618     0.93310
O924        O  0.78728455  0.85536470  0.23271717    -0.82790
O925        O  0.75549928  0.19809177  0.12978439    -0.82250
C926        C  0.85337221  0.16461782  0.08577262     0.97100
O927        O  0.83164014  0.15323669  0.07564230    -0.71370
O928        O  0.81217290  0.13945212  0.12372912    -0.74960
Al929      Al  0.79583087  0.15809678  0.09354813     1.48980
C930        C  0.80465935  0.14366105  0.14838071     0.92360
O931        O  0.82990212  0.20993451  0.15091389    -0.81180
O932        O  0.79530828  0.24404051  0.08356683    -0.74740
Al933      Al  0.79310715  0.20342766  0.13882149     1.90120
O934        O  0.84346404  0.23429022  0.11437854    -0.73810
O935        O  0.80718889  0.20332756  0.04820154    -0.73660
O936        O  0.85497710  0.19085290  0.08486301    -0.79320
O937        O  0.77671506  0.17246160  0.06241304    -0.77520
O938        O  0.80403316  0.19257695  0.10551770    -1.13650
O939        O  0.75964835  0.15633490  0.11089067    -0.72850
C940        C  0.74543182  0.17468931  0.12350755     0.97870
C941        C  0.84667073  0.22687648  0.13966086     0.94260
Al942      Al  0.82380824  0.21600958  0.08389101     1.55560
O943        O  0.79555700  0.16722771  0.15612054    -0.77470
C944        C  0.78412271  0.19043459  0.04486908     0.98430
C945        C  0.78540212  0.25435717  0.10574485     0.93310
O946        O  0.78755660  0.24172061  0.12888515    -0.82790
O947        O  0.95555643  0.99641401  0.12479662    -0.82250
C948        C  0.92263102  0.09760826  0.16187119     0.97100
O949        O  0.91053371  0.07647071  0.17230782    -0.71370
O950        O  0.89931507  0.05607537  0.12383484    -0.74960
Al951      Al  0.91515485  0.04035655  0.15557651     1.48980
C952        C  0.90527749  0.04815108  0.09965160     0.92360
O953        O  0.97141725  0.06903704  0.09907189    -0.81180
O954        O  0.00156585  0.03877709  0.16964651    -0.74740
Al955      Al  0.96301486  0.03327179  0.11332370     1.90120
O956        O  0.99315514  0.08531617  0.13601129    -0.73810
O957        O  0.95922391  0.05073963  0.20235440    -0.73660
O958        O  0.94884191  0.09857061  0.16332514    -0.79320
O959        O  0.92707400  0.02201137  0.18761930    -0.77520
O960        O  0.95072296  0.04671476  0.14511865    -1.13650
O961        O  0.91261973  0.00392093  0.13971517    -0.72850
C962        C  0.93128693  0.98782095  0.13031691     0.97870
C963        C  0.98759899  0.08658811  0.11008556     0.94260
Al964      Al  0.97352042  0.06698839  0.16674082     1.55560
O965        O  0.92826245  0.03636968  0.09404455    -0.77470
C966        C  0.94560531  0.02788904  0.20505294     0.98430
C967        C  0.01273750  0.02747441  0.14865393     0.93310
O968        O  0.00054220  0.02719190  0.12528426    -0.82790
O969        O  0.98013619  0.95050791  0.85829225    -0.82250
C970        C  0.06759189  0.87883275  0.84394669     0.97100
O971        O  0.04706465  0.87598579  0.82682441    -0.71370
O972        O  0.00505328  0.87308496  0.85912102    -0.74960
Al973      Al  0.01170672  0.89802322  0.82915225     1.48980
C974        C  0.99471622  0.87904394  0.88244576     0.92360
O975        O  0.04056805  0.92742396  0.90222064    -0.81180
O976        O  0.04869714  0.97368372  0.83355804    -0.74740
Al977      Al  0.01098225  0.93824220  0.87883370     1.90120
O978        O  0.07365967  0.94672125  0.87703802    -0.73810
O979        O  0.05923145  0.92998439  0.80123366    -0.73660
O980        O  0.07780147  0.90270645  0.84740221    -0.79320
O981        O  0.01526840  0.92191956  0.79588581    -0.77520
O982        O  0.02793675  0.92430979  0.84952776    -1.13650
O983        O  0.97350076  0.91333080  0.83226058    -0.72850
C984        C  0.96425687  0.93533125  0.84409573     0.97870
C985        C  0.06515084  0.93644506  0.89976628     0.94260
Al986      Al  0.06212410  0.93713072  0.84008227     1.55560
O987        O  0.99292870  0.90415982  0.89044359    -0.77470
C988        C  0.03700746  0.93483192  0.78811527     0.98430
C989        C  0.03811205  0.98713975  0.85358290     0.93310
O990        O  0.02543259  0.97499429  0.87345460    -0.82790
O991        O  0.21078114  0.72377680  0.89522921    -0.82250
C992        C  0.13041595  0.80484054  0.91412383     0.97100
O993        O  0.13080247  0.78292242  0.92957674    -0.71370
O994        O  0.13018394  0.74121497  0.89633308    -0.74960
Al995      Al  0.15592713  0.75002015  0.92517089     1.48980
C996        C  0.13616211  0.72962158  0.87356772     0.92360
O997        O  0.17645090  0.77660713  0.84897749    -0.81180
O998        O  0.22735039  0.79432146  0.91217911    -0.74740
Al999      Al  0.19306760  0.75066889  0.87317939     1.90120
O1000       O  0.19211210  0.81377470  0.87063611    -0.73810
O1001       O  0.18756258  0.80075139  0.94916704    -0.73660
O1002       O  0.15280516  0.81510390  0.90546957    -0.79320
O1003       O  0.18093639  0.75644981  0.95649672    -0.77520
O1004       O  0.17921037  0.76782700  0.90252110    -1.13650
O1005       O  0.17497362  0.71344541  0.92219192    -0.72850
C1006       C  0.19833150  0.70688083  0.91108035     0.97870
C1007       C  0.18202831  0.80231896  0.84907929     0.94260
Al1008     Al  0.18903794  0.80320708  0.90921626     1.55560
O1009       O  0.16131598  0.72708693  0.86591628    -0.77470
C1010       C  0.19320803  0.77892253  0.96294461     0.98430
C1011       C  0.23995195  0.78540712  0.89096570     0.93310
O1012       O  0.22774051  0.77039954  0.87305331    -0.82790
O1013       O  0.12467150  0.76132606  0.23434163    -0.82250
C1014       C  0.07706837  0.84616561  0.17714400     0.97100
O1015       O  0.07023874  0.82169412  0.16965828    -0.71370
O1016       O  0.12179834  0.80697072  0.16625930    -0.74960
Al1017     Al  0.09098010  0.78996186  0.18298000     1.48980
C1018       C  0.14620725  0.80209425  0.17407229     0.92360
O1019       O  0.13715832  0.83845031  0.23185177    -0.81180
O1020       O  0.06977734  0.80077873  0.26450826    -0.74740
Al1021     Al  0.12975948  0.79994503  0.23269672     1.90120
O1022       O  0.09763823  0.85090245  0.25175184    -0.73810
O1023       O  0.03892650  0.80398650  0.21846218    -0.73660
O1024       O  0.07324130  0.85261101  0.20250727    -0.79320
O1025       O  0.06024295  0.77043050  0.19606686    -0.77520
O1026       O  0.09727872  0.80489856  0.21626790    -1.13650
O1027       O  0.11104828  0.75598803  0.19059502    -0.72850
C1028       C  0.12118176  0.74627668  0.21308851     0.97870
C1029       C  0.12327678  0.85554336  0.24629532     0.94260
Al1030     Al  0.07123354  0.82574760  0.23286398     1.55560
O1031       O  0.15164308  0.79658573  0.19927570    -0.77470
C1032       C  0.03946165  0.77886850  0.20946850     0.98430
C1033       C  0.09126598  0.79477102  0.27885812     0.93310
O1034       O  0.11544081  0.80112571  0.27022567    -0.82790
O1035       O  0.12167572  0.96154486  0.01210498    -0.82250
C1036       C  0.15547685  0.91261695  0.10888361     0.97100
O1037       O  0.16456283  0.90311647  0.08602507    -0.71370
O1038       O  0.11388014  0.90092902  0.06766249    -0.74960
Al1039     Al  0.14696839  0.91363989  0.05182532     1.48980
C1040       C  0.09032766  0.91047003  0.06133016     0.92360
O1041       O  0.09672539  0.97155195  0.08530155    -0.81180
O1042       O  0.16977722  0.99789985  0.05917770    -0.74740
Al1043     Al  0.11034566  0.96610572  0.04942715     1.90120
O1044       O  0.13507547  0.98688110  0.10537255    -0.73810
O1045       O  0.19771616  0.95084776  0.06627746    -0.73660
O1046       O  0.15835067  0.93849243  0.11305693    -0.79320
O1047       O  0.17967499  0.92365846  0.03418450    -0.77520
O1048       O  0.14053375  0.94916967  0.06178288    -1.13650
O1049       O  0.13027361  0.91651818  0.01586811    -0.72850
C1050       C  0.12393767  0.93766689  0.00132455     0.97870
C1051       C  0.10878743  0.98309304  0.10548374     0.94260
Al1052     Al  0.16404139  0.96690274  0.08447141     1.55560
O1053       O  0.08756572  0.93371779  0.04905471    -0.77470
C1054       C  0.19893852  0.93937599  0.04216618     0.98430
C1055       C  0.15020668  0.01176583  0.04794152     0.93310
O1056       O  0.12565481  0.00244750  0.04746718    -0.82790
O1057       O  0.23556693  0.38293147  0.72706175    -0.82250
C1058       C  0.31344798  0.39174782  0.64358576     0.97100
O1059       O  0.29313287  0.40912602  0.64389659    -0.71370
O1060       O  0.25278100  0.37333113  0.64633214    -0.74960
Al1061     Al  0.26070440  0.40511877  0.66885855     1.48980
C1062       C  0.23959635  0.35245162  0.65553004     0.92360
O1063       O  0.28814451  0.33216235  0.69915036    -0.81180
O1064       O  0.30803728  0.40041369  0.74066421    -0.74740
Al1065     Al  0.26240977  0.35841310  0.71226698     1.90120
O1066       O  0.32614286  0.35592128  0.70931433    -0.73810
O1067       O  0.31064845  0.43355389  0.69726789    -0.73660
O1068       O  0.32574817  0.38598665  0.66593886    -0.79320
O1069       O  0.26578562  0.43829353  0.69107451    -0.77520
O1070       O  0.27936551  0.38556318  0.69446846    -1.13650
O1071       O  0.22426626  0.40250661  0.68711770    -0.72850
C1072       C  0.21766633  0.39443984  0.71155751     0.97870
C1073       C  0.31423323  0.33330589  0.70271900     0.94260
Al1074     Al  0.31500819  0.39379491  0.70245330     1.55560
O1075       O  0.23864630  0.34741648  0.68154700    -0.77470
C1076       C  0.28800001  0.44607776  0.70298467     0.98430
C1077       C  0.29849559  0.38123425  0.75587197     0.93310
O1078       O  0.28240357  0.36274889  0.74624363    -0.82790
O1079       O  0.45789664  0.35971503  0.50056885    -0.82250
C1080       C  0.38019881  0.32287346  0.57476537     0.97100
O1081       O  0.38206563  0.30982920  0.55144739    -0.71370
O1082       O  0.38095217  0.34583560  0.51111914    -0.74960
Al1083     Al  0.40832207  0.31832979  0.52071453     1.48980
C1084       C  0.38454334  0.37118874  0.50524572     0.92360
O1085       O  0.42284241  0.39032894  0.56363998    -0.81180
O1086       O  0.47800417  0.32808456  0.56838009    -0.74740
Al1087     Al  0.43972536  0.37320782  0.53228180     1.90120
O1088       O  0.44147211  0.36231679  0.59483389    -0.73810
O1089       O  0.43886192  0.28811781  0.56961967    -0.73660
O1090       O  0.40177246  0.32760280  0.58893915    -0.79320
O1091       O  0.43431394  0.28732772  0.52484598    -0.77520
O1092       O  0.42891683  0.33967825  0.54301407    -1.13650
O1093       O  0.42974879  0.32601579  0.48707611    -0.72850
C1094       C  0.45040315  0.34205106  0.48266171     0.97870
C1095       C  0.42965256  0.38492236  0.58857086     0.94260
Al1096     Al  0.43901391  0.32710527  0.57733741     1.55560
O1097       O  0.40717473  0.38310830  0.51125374    -0.77470
C1098       C  0.44532191  0.27742662  0.54663155     0.98430
C1099       C  0.48873677  0.35148237  0.56209205     0.93310
O1100       O  0.47460697  0.37060384  0.55037943    -0.82790
O1101       O  0.37932951  0.70160388  0.23619324    -0.82250
C1102       C  0.40114566  0.63364972  0.32462424     0.97100
O1103       O  0.41618553  0.62975153  0.30270283    -0.71370
O1104       O  0.38712443  0.62435683  0.25894281    -0.74960
Al1105     Al  0.41441318  0.65213802  0.26750711     1.48980
C1106       C  0.36390112  0.62814212  0.24735837     0.92360
O1107       O  0.33832787  0.67082262  0.29500333    -0.81180
O1108       O  0.39848035  0.72827035  0.30172824    -0.74740
Al1109     Al  0.35993971  0.68594622  0.26575118     1.90120
O1110       O  0.36050889  0.69381918  0.32801435    -0.73810
O1111       O  0.43762149  0.69153678  0.31419697    -0.73660
O1112       O  0.39857260  0.65780320  0.33419973    -0.79320
O1113       O  0.44600289  0.67806061  0.27216032    -0.77520
O1114       O  0.39108093  0.67624889  0.28302058    -1.13650
O1115       O  0.41213076  0.66941475  0.23002709    -0.72850
C1116       C  0.39836496  0.69079235  0.22157049     0.97870
C1117       C  0.33953261  0.68022837  0.31961078     0.94260
Al1118     Al  0.39861191  0.69153492  0.31658257     1.55560
O1119       O  0.35363930  0.65226934  0.24565337    -0.77470
C1120       C  0.45154942  0.69412299  0.29232884     0.98430
C1121       C  0.37525288  0.73766619  0.29365732     0.93310
O1122       O  0.35795819  0.72224951  0.28116825    -0.82790
O1123       O  0.34847138  0.47670215  0.46869599    -0.82250
C1124       C  0.33210469  0.56156324  0.39170641     0.97100
O1125       O  0.31661026  0.53986422  0.39095417    -0.71370
O1126       O  0.34979640  0.49730353  0.38881821    -0.74960
Al1127     Al  0.32044015  0.50593598  0.41450750     1.48980
C1128       C  0.37150174  0.48366074  0.39504389     0.92360
O1129       O  0.39667311  0.52928913  0.43760121    -0.81180
O1130       O  0.33373438  0.54741653  0.48833226    -0.74740
Al1131     Al  0.37159747  0.50344106  0.45259973     1.90120
O1132       O  0.37564295  0.56673153  0.45408899    -0.73810
O1133       O  0.29718728  0.55568359  0.44857182    -0.73660
O1134       O  0.34106426  0.57038688  0.41456431    -0.79320
O1135       O  0.28870843  0.51210800  0.43921769    -0.77520
O1136       O  0.34300841  0.52213002  0.43904230    -1.13650
O1137       O  0.32262483  0.46842629  0.43165834    -0.72850
C1138       C  0.33330191  0.46053292  0.45477126     0.97870
C1139       C  0.39694086  0.55485658  0.44386083     0.94260
Al1140     Al  0.33701495  0.55729549  0.45031786     1.55560
O1141       O  0.37882604  0.48084857  0.42022139    -0.77470
C1142       C  0.28287499  0.53399054  0.45290323     0.98430
C1143       C  0.35342407  0.53536538  0.50095812     0.93310
O1144       O  0.37146007  0.52106280  0.48803719    -0.82790
O1145       O  0.50911776  0.36017442  0.02927634    -0.82250
C1146       C  0.60486428  0.32075850  0.07587948     0.97100
O1147       O  0.58174715  0.31188482  0.08502455    -0.71370
O1148       O  0.56356939  0.36297579  0.09110982    -0.74960
Al1149     Al  0.54770264  0.33062115  0.07577326     1.48980
C1150       C  0.55451163  0.38671989  0.08461466     0.92360
O1151       O  0.58365918  0.38436027  0.02275845    -0.81180
O1152       O  0.55455268  0.31365683  0.99101552    -0.74740
Al1153     Al  0.54683811  0.37122284  0.02643539     1.90120
O1154       O  0.60131998  0.34663721  0.00307787    -0.73810
O1155       O  0.56128262  0.28173684  0.03532361    -0.73660
O1156       O  0.60902017  0.31937649  0.04988135    -0.79320
O1157       O  0.52960354  0.29876343  0.06362317    -0.77520
O1158       O  0.55812046  0.33938407  0.04106112    -1.13650
O1159       O  0.51168171  0.34743184  0.07342027    -0.72850
C1160       C  0.49749540  0.35491045  0.05242478     0.97870
C1161       C  0.60239238  0.37276309  0.00823435     0.94260
Al1162     Al  0.58017050  0.31649317  0.02158644     1.55560
O1163       O  0.54463100  0.39155583  0.06065820    -0.77470
C1164       C  0.53715026  0.28014013  0.04692868     0.98430
C1165       C  0.54490206  0.33471516  0.97827695     0.93310
O1166       O  0.54597831  0.35875564  0.98887712    -0.82790
O1167       O  0.71049984  0.36483034  0.24520452    -0.82250
C1168       C  0.66976803  0.39884626  0.14449183     0.97100
O1169       O  0.65939846  0.40878470  0.16648419    -0.71370
O1170       O  0.65311235  0.35843659  0.18653137    -0.74960
Al1171     Al  0.66698893  0.39181590  0.20151886     1.48980
C1172       C  0.66084358  0.33462932  0.19441117     0.92360
O1173       O  0.72401194  0.33706211  0.17283135    -0.81180
O1174       O  0.75412706  0.40856422  0.19659704    -0.74740
Al1175     Al  0.71693518  0.35216768  0.20821547     1.90120
O1176       O  0.74138110  0.37411444  0.15170103    -0.73810
O1177       O  0.70948666  0.43989445  0.18874054    -0.73660
O1178       O  0.69585860  0.40083687  0.14156158    -0.79320
O1179       O  0.67746947  0.42504183  0.21822118    -0.77520
O1180       O  0.70273395  0.38303849  0.19387194    -1.13650
O1181       O  0.66663094  0.37667502  0.23791807    -0.72850
C1182       C  0.68615306  0.36984144  0.25419558     0.97870
C1183       C  0.73674716  0.34801235  0.15252618     0.94260
Al1184     Al  0.72322188  0.40477556  0.17126477     1.55560
O1185       O  0.68336971  0.33117057  0.20765668    -0.77470
C1186       C  0.69479182  0.44327422  0.21086690     0.98430
C1187       C  0.76597686  0.38828908  0.20875105     0.93310
O1188       O  0.75382093  0.36521923  0.21158928    -0.82790
O1189       O  0.22928104  0.26645067  0.13085614    -0.82250
C1190       C  0.13829205  0.30921288  0.08080966     0.97100
O1191       O  0.16167623  0.31742905  0.07132435    -0.71370
O1192       O  0.17848421  0.32864602  0.12103578    -0.74960
Al1193     Al  0.19508919  0.30951351  0.09202239     1.48980
C1194       C  0.18060676  0.32282183  0.14634386     0.92360
O1195       O  0.15252746  0.25933488  0.14602709    -0.81180
O1196       O  0.18919019  0.22481066  0.08003482    -0.74740
Al1197     Al  0.19056606  0.26341592  0.13666035     1.90120
O1198       O  0.13989672  0.23644360  0.10862334    -0.73810
O1199       O  0.18202880  0.26758484  0.04505562    -0.73660
O1200       O  0.13346120  0.28323691  0.07995843    -0.79320
O1201       O  0.21480490  0.29400228  0.06243612    -0.77520
O1202       O  0.18300805  0.27581073  0.10293501    -1.13650
O1203       O  0.22953016  0.30825460  0.11150535    -0.72850
C1204       C  0.24175917  0.28855627  0.12404404     0.97870
C1205       C  0.13593011  0.24295942  0.13402767     0.94260
Al1206     Al  0.16252246  0.25487518  0.07966755     1.55560
O1207       O  0.18829201  0.29889783  0.15457443    -0.77470
C1208       C  0.20656998  0.27801013  0.04357578     0.98430
C1209       C  0.19807096  0.21363917  0.10238332     0.93310
O1210       O  0.19459080  0.22526182  0.12582989    -0.82790
O1211       O  0.02562911  0.47143157  0.11740605    -0.82250
C1212       C  0.07509695  0.37903601  0.16028665     0.97100
O1213       O  0.08476337  0.40244087  0.16781969    -0.71370
O1214       O  0.08895212  0.42043708  0.11727753    -0.74960
Al1215     Al  0.07382079  0.43616680  0.14920338     1.48980
C1216       C  0.08048742  0.42461577  0.09298025     0.92360
O1217       O  0.01912265  0.39526079  0.10051488    -0.81180
O1218       O  0.99023184  0.42960218  0.17026634    -0.74740
Al1219     Al  0.02284050  0.43297078  0.11035823     1.90120
O1220       O  0.00059788  0.38081410  0.13995090    -0.73810
O1221       O  0.03576401  0.42342303  0.20055197    -0.73660
O1222       O  0.04930664  0.37472492  0.16423842    -0.79320
O1223       O  0.06286907  0.45463519  0.18129123    -0.77520
O1224       O  0.03900372  0.42450451  0.14234575    -1.13650
O1225       O  0.06945673  0.47139440  0.13134092    -0.72850
C1226       C  0.04822272  0.48412135  0.12207024     0.97870
C1227       C  0.00493972  0.37767006  0.11395099     0.94260
Al1228     Al  0.02074595  0.40354627  0.16736741     1.55560
O1229       O  0.05590101  0.43286826  0.08826093    -0.77470
C1230       C  0.04789896  0.44717393  0.20137541     0.98430
C1231       C  0.97642646  0.43813573  0.14935730     0.93310
O1232       O  0.98573242  0.43520667  0.12485596    -0.82790
O1233       O  0.36711225  0.49967661  0.04461466    -0.82250
C1234       C  0.33074479  0.41488571  0.10943095     0.97100
O1235       O  0.31771876  0.43844326  0.11072545    -0.71370
O1236       O  0.34867269  0.48285901  0.11577726    -0.74960
Al1237     Al  0.32282563  0.47207644  0.08689488     1.48980
C1238       C  0.37470661  0.48654338  0.11502254     0.92360
O1239       O  0.39787916  0.43259282  0.07159152    -0.81180
O1240       O  0.33759811  0.43496981  0.01392340    -0.74740
Al1241     Al  0.38049958  0.46574508  0.05827794     1.90120
O1242       O  0.37299364  0.40479496  0.04568314    -0.73810
O1243       O  0.29764474  0.42401986  0.05139918    -0.73660
O1244       O  0.33741030  0.40428451  0.08621170    -0.79320
O1245       O  0.29226300  0.46755107  0.05990391    -0.77520
O1246       O  0.34675593  0.45319483  0.06554058    -1.13650
O1247       O  0.32755151  0.50717246  0.06723474    -0.72850
C1248       C  0.34594973  0.51455597  0.04961816     0.97870
C1249       C  0.39468010  0.40956691  0.05946341     0.94260
Al1250     Al  0.33685837  0.41998093  0.05077276     1.55560
O1251       O  0.38834533  0.48076833  0.09348204    -0.77470
C1252       C  0.28540971  0.44642972  0.04590237     0.98430
C1253       C  0.35979259  0.44608928  0.00458695     0.93310
O1254       O  0.37935256  0.45375501  0.02069703    -0.82790
O1255       O  0.39105224  0.26715217  0.26127516    -0.82250
C1256       C  0.40128617  0.34331783  0.17639103     0.97100
O1257       O  0.41655938  0.34697697  0.19811414    -0.71370
O1258       O  0.38406905  0.34650899  0.24019054    -0.74960
Al1259     Al  0.41570203  0.32331641  0.23252829     1.48980
C1260       C  0.36262649  0.33867245  0.25320356     0.92360
O1261       O  0.34325615  0.29471717  0.20609299    -0.81180
O1262       O  0.41103764  0.24753716  0.19349089    -0.74740
Al1263     Al  0.36796724  0.28142972  0.23350181     1.90120
O1264       O  0.36735216  0.27818332  0.17043235    -0.73810
O1265       O  0.44449870  0.29004300  0.18465559    -0.73660
O1266       O  0.39953631  0.31938264  0.16617674    -0.79320
O1267       O  0.44987651  0.30108603  0.22808784    -0.77520
O1268       O  0.39630123  0.29678772  0.21592761    -1.13650
O1269       O  0.41456164  0.30572173  0.27003403    -0.72850
C1270       C  0.40561100  0.28170755  0.27756101     0.97870
C1271       C  0.34495609  0.28811127  0.18059113     0.94260
Al1272     Al  0.40536316  0.28484022  0.18146486     1.55560
O1273       O  0.35740968  0.31300036  0.25590462    -0.77470
C1274       C  0.45757303  0.28685098  0.20718648     0.98430
C1275       C  0.38992118  0.23440117  0.20182079     0.93310
O1276       O  0.37099630  0.24632521  0.21581239    -0.82790
O1277       O  0.47222250  0.47474762  0.87325095    -0.82250
C1278       C  0.42429335  0.37722655  0.84158989     0.97100
O1279       O  0.41233566  0.39967553  0.83412506    -0.71370
O1280       O  0.40769529  0.42486860  0.88102031    -0.74960
Al1281     Al  0.42317270  0.43590718  0.84701205     1.48980
C1282       C  0.41543566  0.43546249  0.90352425     0.92360
O1283       O  0.47693735  0.40108124  0.90090204    -0.81180
O1284       O  0.50870810  0.42875699  0.82890505    -0.74740
Al1285     Al  0.47404947  0.43771961  0.88622081     1.90120
O1286       O  0.49611654  0.38264141  0.86322516    -0.73810
O1287       O  0.46455429  0.42058996  0.79763225    -0.73660
O1288       O  0.45011759  0.37435250  0.83694610    -0.79320
O1289       O  0.43288977  0.44991179  0.81251081    -0.77520
O1290       O  0.45838660  0.42565877  0.85522449    -1.13650
O1291       O  0.42807020  0.47352080  0.85948047    -0.72850
C1292       C  0.44950683  0.48694108  0.86725624     0.97870
C1293       C  0.49069616  0.38168901  0.88926201     0.94260
Al1294     Al  0.47792162  0.40314679  0.83283113     1.55560
O1295       O  0.44047599  0.44276601  0.90695961    -0.77470
C1296       C  0.44964646  0.44244201  0.79403259     0.98430
C1297       C  0.52233189  0.43743565  0.84972220     0.93310
O1298       O  0.51181101  0.43667157  0.87380038    -0.82790
O1299       O  0.26052098  0.26757710  0.87242963    -0.82250
C1300       C  0.35860743  0.30336896  0.91426474     0.97100
O1301       O  0.33655898  0.31399137  0.92445257    -0.71370
O1302       O  0.31807852  0.32517343  0.87517270    -0.74960
Al1303     Al  0.30143083  0.30840955  0.90583363     1.48980
C1304       C  0.31174292  0.31970790  0.85044999     0.92360
O1305       O  0.33405986  0.25241464  0.84998845    -0.81180
O1306       O  0.30238249  0.22248353  0.91976454    -0.74740
Al1307     Al  0.29787209  0.26091335  0.86278235     1.90120
O1308       O  0.34975273  0.23157741  0.88784434    -0.73810
O1309       O  0.31328236  0.26543189  0.95272210    -0.73660
O1310       O  0.36080847  0.27710793  0.91451942    -0.79320
O1311       O  0.28228997  0.29523785  0.93694745    -0.77520
O1312       O  0.30967443  0.27330242  0.89520908    -1.13650
O1313       O  0.26550912  0.31025049  0.88849366    -0.72850
C1314       C  0.25048098  0.29104113  0.87871938     0.97870
C1315       C  0.35174160  0.23685322  0.86195536     0.94260
Al1316     Al  0.33015519  0.25117900  0.91752758     1.55560
O1317       O  0.30136362  0.29634791  0.84363388    -0.77470
C1318       C  0.28968555  0.27783949  0.95509134     0.98430
C1319       C  0.29134456  0.21138791  0.89852884     0.93310
O1320       O  0.29184089  0.22339046  0.87496972    -0.82790
O1321       O  0.28403857  0.10980899  0.24309389    -0.82250
C1322       C  0.31782728  0.07304493  0.14217121     0.97100
O1323       O  0.33004649  0.06283660  0.16327284    -0.71370
O1324       O  0.34017149  0.11171582  0.18298032    -0.74960
Al1325     Al  0.32505172  0.07980507  0.19893792     1.48980
C1326       C  0.33378996  0.13589662  0.19055480     0.92360
O1327       O  0.26819959  0.13570778  0.17027393    -0.81180
O1328       O  0.23808306  0.06543885  0.19976385    -0.74740
Al1329     Al  0.27660598  0.12153661  0.20607981     1.90120
O1330       O  0.24769837  0.09849732  0.15290068    -0.73810
O1331       O  0.28060729  0.03282534  0.18979988    -0.73660
O1332       O  0.29170767  0.07077368  0.14095635    -0.79320
O1333       O  0.31393075  0.04771013  0.21707183    -0.77520
O1334       O  0.28923219  0.08981414  0.19257269    -1.13650
O1335       O  0.32714502  0.09539114  0.23552522    -0.72850
C1336       C  0.30797447  0.10301426  0.25200439     0.97870
C1337       C  0.25321189  0.12443550  0.15177789     0.94260
Al1338     Al  0.26670727  0.06795766  0.17226220     1.55560
O1339       O  0.31116799  0.14107602  0.20319181    -0.77470
C1340       C  0.29478304  0.03066106  0.21239216     0.98430
C1341       C  0.22676219  0.08646652  0.21080802     0.93310
O1342       O  0.23914194  0.10965406  0.21168508    -0.82790
O1343       O  0.47498121  0.10956128  0.02712165    -0.82250
C1344       C  0.38436302  0.15274464  0.07676086     0.97100
O1345       O  0.40773998  0.16088503  0.08651181    -0.71370
O1346       O  0.42877473  0.11274290  0.09465446    -0.74960
Al1347     Al  0.44253910  0.14349521  0.07560683     1.48980
C1348       C  0.43698065  0.08867671  0.08905522     0.92360
O1349       O  0.39955181  0.08977939  0.02841444    -0.81180
O1350       O  0.43310359  0.15722480  0.99152793    -0.74740
Al1351     Al  0.43726180  0.10063459  0.02860257     1.90120
O1352       O  0.38463217  0.12724105  0.00583227    -0.73810
O1353       O  0.42727462  0.19194910  0.03407267    -0.73660
O1354       O  0.37963730  0.15656062  0.05112168    -0.79320
O1355       O  0.45966092  0.17498434  0.06130334    -0.77520
O1356       O  0.42918948  0.13372898  0.04227402    -1.13650
O1357       O  0.47885420  0.12613681  0.06997181    -0.72850
C1358       C  0.48939071  0.11476096  0.04842284     0.97870
C1359       C  0.38171381  0.10162776  0.01284256     0.94260
Al1360     Al  0.40760768  0.15705762  0.02241438     1.55560
O1361       O  0.44227659  0.08169996  0.06414195    -0.77470
C1362       C  0.45154826  0.19372185  0.04506161     0.98430
C1363       C  0.44006895  0.13494641  0.97918685     0.93310
O1364       O  0.43549833  0.11135548  0.99014160    -0.82790
O1365       O  0.50035508  0.01876095  0.36125989    -0.82250
C1366       C  0.41257728  0.09035246  0.34687771     0.97100
O1367       O  0.43405395  0.09420867  0.33118124    -0.71370
O1368       O  0.47643723  0.09642750  0.36404659    -0.74960
Al1369     Al  0.46944090  0.07230030  0.33301825     1.48980
C1370       C  0.48797730  0.08917352  0.38655101     0.92360
O1371       O  0.44046486  0.04288161  0.40480170    -0.81180
O1372       O  0.43430304  0.99550168  0.33625075    -0.74740
Al1373     Al  0.47005683  0.03122374  0.38200456     1.90120
O1374       O  0.40805383  0.02219458  0.37981806    -0.73810
O1375       O  0.42259266  0.03954536  0.30414933    -0.73660
O1376       O  0.40315014  0.06606241  0.34999734    -0.79320
O1377       O  0.46614864  0.04969488  0.29917217    -0.77520
O1378       O  0.45335669  0.04540021  0.35265614    -1.13650
O1379       O  0.50721924  0.05611561  0.33499474    -0.72850
C1380       C  0.51577386  0.03312960  0.34556172     0.97870
C1381       C  0.41574071  0.03433268  0.40187891     0.94260
Al1382     Al  0.41961161  0.03196181  0.34284059     1.55560
O1383       O  0.48936407  0.06383845  0.39345423    -0.77470
C1384       C  0.44505633  0.03608837  0.29111057     0.98430
C1385       C  0.44638930  0.98245322  0.35584976     0.93310
O1386       O  0.45541858  0.99504521  0.37720807    -0.82790
O1387       O  0.29608720  0.24709773  0.37287540    -0.82250
C1388       C  0.35577822  0.16867609  0.42251344     0.97100
O1389       O  0.35957716  0.19480813  0.42171454    -0.71370
O1390       O  0.35096276  0.24009178  0.39197998    -0.74960
Al1391     Al  0.32882095  0.22154294  0.42065161     1.48980
C1392       C  0.35633577  0.23252914  0.36722718     0.92360
O1393       O  0.30731182  0.17351104  0.34709433    -0.81180
O1394       O  0.26634262  0.16253414  0.38944391    -0.74740
Al1395     Al  0.30262096  0.20914778  0.36353645     1.90120
O1396       O  0.31901945  0.14503247  0.38125864    -0.73810
O1397       O  0.27801792  0.18035163  0.43816292    -0.73660
O1398       O  0.33262976  0.16023262  0.43221400    -0.79320
O1399       O  0.30931366  0.20894978  0.45501265    -0.77520
O1400       O  0.31012086  0.19853145  0.39777038    -1.13650
O1401       O  0.30044154  0.25008117  0.41865911    -0.72850
C1402       C  0.29103335  0.25940094  0.39567908     0.97870
C1403       C  0.31620340  0.15019159  0.35567001     0.94260
Al1404     Al  0.29994259  0.16455232  0.40973188     1.55560
O1405       O  0.34064875  0.21538223  0.35498685    -0.77470
C1406       C  0.28519553  0.19763361  0.45638338     0.98430
C1407       C  0.25286220  0.18092857  0.37634308     0.93310
O1408       O  0.26387656  0.20356575  0.36856236    -0.82790
O1409       O  0.48347442  0.85737182  0.46600287    -0.82250
C1410       C  0.38127404  0.82467414  0.43086177     0.97100
O1411       O  0.40224873  0.81509158  0.41796481    -0.71370
O1412       O  0.42552628  0.86252950  0.40806763    -0.74960
Al1413     Al  0.43914089  0.82930971  0.42383319     1.48980
C1414       C  0.43726911  0.88530777  0.41291825     0.92360
O1415       O  0.41163901  0.88702881  0.47934646    -0.81180
O1416       O  0.44021048  0.81578143  0.51102170    -0.74740
Al1417     Al  0.44725526  0.87117660  0.47180461     1.90120
O1418       O  0.39420235  0.85011704  0.50093430    -0.73810
O1419       O  0.42795740  0.78261837  0.46920723    -0.73660
O1420       O  0.38075485  0.82243342  0.45713051    -0.79320
O1421       O  0.45468471  0.79545745  0.43445280    -0.77520
O1422       O  0.43292062  0.83966631  0.45946688    -1.13650
O1423       O  0.47720082  0.84216399  0.42300275    -0.72850
C1424       C  0.49311766  0.84985996  0.44264042     0.97870
C1425       C  0.39356525  0.87610970  0.49536599     0.94260
Al1426     Al  0.41213417  0.81873690  0.48234228     1.55560
O1427       O  0.44781253  0.89016000  0.43657715    -0.77470
C1428       C  0.44872641  0.77807429  0.45304550     0.98430
C1429       C  0.45145981  0.83699184  0.52187239     0.93310
O1430       O  0.45116429  0.86022033  0.50951003    -0.82790
O1431       O  0.26726227  0.86981283  0.26407562    -0.82250
C1432       C  0.30964706  0.89954666  0.36492092     0.97100
O1433       O  0.32089345  0.90955508  0.34315540    -0.71370
O1434       O  0.32676010  0.86105253  0.32014278    -0.74960
Al1435     Al  0.31247621  0.89476298  0.30684409     1.48980
C1436       C  0.31849315  0.83777105  0.31159292     0.92360
O1437       O  0.25434364  0.84065766  0.33584716    -0.81180
O1438       O  0.22715937  0.91475765  0.31177774    -0.74740
Al1439     Al  0.26142047  0.85651212  0.30061057     1.90120
O1440       O  0.23643515  0.87782617  0.35611144    -0.73810
O1441       O  0.27257584  0.94351823  0.32281576    -0.73660
O1442       O  0.28349208  0.90136115  0.36732233    -0.79320
O1443       O  0.30192414  0.92842725  0.29105141    -0.77520
O1444       O  0.27671492  0.88647935  0.31504006    -1.13650
O1445       O  0.31145974  0.88096814  0.26955858    -0.72850
C1446       C  0.29119548  0.87440183  0.25404825     0.97870
C1447       C  0.24062794  0.85159856  0.35547436     0.94260
Al1448     Al  0.25683635  0.90824087  0.33797676     1.55560
O1449       O  0.29484246  0.83482743  0.30024091    -0.77470
C1450       C  0.28532755  0.94671942  0.29954252     0.98430
C1451       C  0.21416258  0.89534069  0.29964634     0.93310
O1452       O  0.22455373  0.87116558  0.29782979    -0.82790
O1453       O  0.13475269  0.48000514  0.52783089    -0.82250
C1454       C  0.14960744  0.56234389  0.60549042     0.97100
O1455       O  0.16568470  0.54090728  0.60729941    -0.71370
O1456       O  0.13313006  0.49923664  0.60770291    -0.74960
Al1457     Al  0.16303857  0.50739391  0.58305034     1.48980
C1458       C  0.11132649  0.48644287  0.60097228     0.92360
O1459       O  0.08888995  0.53533809  0.55878773    -0.81180
O1460       O  0.15414745  0.54913473  0.50875027    -0.74740
Al1461     Al  0.11278569  0.50803077  0.54383757     1.90120
O1462       O  0.11241006  0.57119747  0.54202825    -0.73810
O1463       O  0.19020346  0.55640283  0.54957859    -0.73660
O1464       O  0.14643430  0.57389164  0.58218181    -0.79320
O1465       O  0.19580649  0.51245450  0.55958576    -0.77520
O1466       O  0.14214597  0.52493406  0.55801344    -1.13650
O1467       O  0.16057040  0.47044070  0.56481413    -0.72850
C1468       C  0.14995157  0.46327282  0.54143820     0.97870
C1469       C  0.09038260  0.56098294  0.55255838     0.94260
Al1470     Al  0.15058345  0.55980916  0.54666051     1.55560
O1471       O  0.10394320  0.48503730  0.57571965    -0.77470
C1472       C  0.20353309  0.53396006  0.54628954     0.98430
C1473       C  0.13280037  0.54043910  0.49618577     0.93310
O1474       O  0.11416316  0.52661668  0.50875063    -0.82790
O1475       O  0.09623503  0.70609806  0.76036052    -0.82250
C1476       C  0.08050644  0.62404330  0.68094922     0.97100
O1477       O  0.06537238  0.62414631  0.70300843    -0.71370
O1478       O  0.09984538  0.62504795  0.74444781    -0.74960
Al1479     Al  0.06951216  0.64955868  0.73548286     1.48980
C1480       C  0.12150684  0.63257066  0.75733790     0.92360
O1481       O  0.14442615  0.67332448  0.70839974    -0.81180
O1482       O  0.07902049  0.72120112  0.68961760    -0.74740
Al1483     Al  0.11943632  0.68912546  0.73402066     1.90120
O1484       O  0.12158345  0.68713774  0.67090242    -0.73810
O1485       O  0.04368076  0.68002041  0.68486262    -0.73660
O1486       O  0.08845963  0.64659704  0.67043479    -0.79320
O1487       O  0.03704919  0.67354724  0.72921419    -0.77520
O1488       O  0.09087114  0.67367206  0.71714237    -1.13650
O1489       O  0.07244959  0.66856964  0.77186737    -0.72850
C1490       C  0.08266142  0.69230684  0.77819619     0.97870
C1491       C  0.14374681  0.67854252  0.68255758     0.94260
Al1492     Al  0.08340238  0.68285015  0.68170302     1.55560
O1493       O  0.12811549  0.65811009  0.75846537    -0.77470
C1494       C  0.03036251  0.68605289  0.70679659     0.98430
C1495       C  0.09963632  0.73477335  0.69834956     0.93310
O1496       O  0.11803438  0.72349977  0.71365223    -0.82790
O1497       O  0.88474853  0.77087427  0.76488489    -0.82250
C1498       C  0.90337800  0.84184527  0.67619533     0.97100
O1499       O  0.91911244  0.84358375  0.69775913    -0.71370
O1500       O  0.88657074  0.84869455  0.74035527    -0.74960
Al1501     Al  0.91536629  0.82189197  0.73290741     1.48980
C1502       C  0.86353199  0.84375094  0.75209483     0.92360
O1503       O  0.83909182  0.79806328  0.70789814    -0.81180
O1504       O  0.90353649  0.74644955  0.69637534    -0.74740
Al1505     Al  0.86325148  0.78505991  0.73587523     1.90120
O1506       O  0.86094804  0.77781668  0.67315467    -0.73810
O1507       O  0.93927223  0.78651252  0.68480549    -0.73660
O1508       O  0.89468933  0.81852518  0.66812637    -0.79320
O1509       O  0.94674624  0.79616619  0.72831378    -0.77520
O1510       O  0.89261860  0.79704796  0.71756779    -1.13650
O1511       O  0.91310192  0.80646267  0.77087240    -0.72850
C1512       C  0.90150292  0.78428159  0.77982730     0.97870
C1513       C  0.83932544  0.78936987  0.68308465     0.94260
Al1514     Al  0.89942006  0.78354870  0.68328143     1.55560
O1515       O  0.85513171  0.81899691  0.75525972    -0.77470
C1516       C  0.95310606  0.78223987  0.70678994     0.98430
C1517       C  0.88398915  0.73459593  0.70942115     0.93310
O1518       O  0.86477829  0.74853719  0.72111242    -0.82790
O1519       O  0.85222569  0.99772154  0.53235079    -0.82250
C1520       C  0.83580115  0.90760720  0.60065276     0.97100
O1521       O  0.81990368  0.92893801  0.60473428    -0.71370
O1522       O  0.85024260  0.97185332  0.61023629    -0.74960
Al1523     Al  0.82166758  0.96496043  0.58354156     1.48980
C1524       C  0.87251196  0.98491178  0.60578601     0.92360
O1525       O  0.89726243  0.94049372  0.56054440    -0.81180
O1526       O  0.83436682  0.93199730  0.50637216    -0.74740
Al1527     Al  0.87379713  0.96893166  0.54693954     1.90120
O1528       O  0.87522395  0.90663618  0.53865336    -0.73810
O1529       O  0.79764879  0.91863424  0.54527203    -0.73660
O1530       O  0.83976051  0.89932478  0.57631261    -0.79320
O1531       O  0.78945958  0.96101677  0.55837547    -0.77520
O1532       O  0.84408386  0.95042092  0.55808161    -1.13650
O1533       O  0.82395684  0.00357663  0.56836356    -0.72850
C1534       C  0.83612563  0.01294691  0.54643931     0.97870
C1535       C  0.89657383  0.91583995  0.55117832     0.94260
Al1536     Al  0.83684371  0.91691189  0.54290948     1.55560
O1537       O  0.88096248  0.98885135  0.58112848    -0.77470
C1538       C  0.78332636  0.94044384  0.54298803     0.98430
C1539       C  0.85692444  0.94049325  0.49589521     0.93310
O1540       O  0.87447272  0.95376919  0.51037919    -0.82790
O1541       O  0.60424464  0.76879198  0.24059093    -0.82250
C1542       C  0.58411291  0.84233090  0.32504581     0.97100
O1543       O  0.56994663  0.84577491  0.30254926    -0.71370
O1544       O  0.60492806  0.84754953  0.26259449    -0.74960
Al1545     Al  0.57427758  0.82299776  0.26823828     1.48980
C1546       C  0.62782195  0.84078545  0.25169904     0.92360
O1547       O  0.64559221  0.79616652  0.30038423    -0.81180
O1548       O  0.57911316  0.74664754  0.30670311    -0.74740
Al1549     Al  0.62397737  0.78296346  0.27074759     1.90120
O1550       O  0.61969824  0.77773952  0.33374600    -0.73810
O1551       O  0.54355750  0.78810036  0.31387607    -0.73660
O1552       O  0.58572538  0.81841948  0.33565854    -0.79320
O1553       O  0.54092091  0.79989408  0.27018409    -0.77520
O1554       O  0.59360537  0.79685116  0.28607207    -1.13650
O1555       O  0.57885557  0.80621933  0.23106982    -0.72850
C1556       C  0.58987632  0.78306370  0.22374411     0.97870
C1557       C  0.64226800  0.78881695  0.32552552     0.94260
Al1558     Al  0.58245366  0.78387675  0.31968694     1.55560
O1559       O  0.63512906  0.81552002  0.25032939    -0.77470
C1560       C  0.53172421  0.78592404  0.29062380     0.98430
C1561       C  0.60106153  0.73429237  0.29909817     0.93310
O1562       O  0.62065577  0.74724963  0.28714516    -0.82790
O1563       O  0.62316419  0.99508561  0.46520170    -0.82250
C1564       C  0.65380784  0.91402222  0.39134124     0.97100
O1565       O  0.66684186  0.93741184  0.39043058    -0.71370
O1566       O  0.63265987  0.97882257  0.38864496    -0.74960
Al1567     Al  0.66103004  0.97013913  0.41508504     1.48980
C1568       C  0.60777390  0.98583385  0.39317672     0.92360
O1569       O  0.58822405  0.93176363  0.43529653    -0.81180
O1570       O  0.65332110  0.92796733  0.48762039    -0.74740
Al1571     Al  0.60732240  0.96311481  0.44999268     1.90120
O1572       O  0.61484830  0.90093561  0.45624398    -0.73810
O1573       O  0.69005860  0.92174711  0.44643110    -0.73660
O1574       O  0.64766221  0.90293657  0.41436693    -0.79320
O1575       O  0.69283137  0.96621467  0.43995123    -0.77520
O1576       O  0.63969183  0.95034648  0.43823966    -1.13650
O1577       O  0.65592809  0.00547194  0.43446330    -0.72850
C1578       C  0.64133463  0.01161408  0.45575080     0.97870
C1579       C  0.59264927  0.90711200  0.44357616     0.94260
Al1580     Al  0.65093084  0.91629097  0.45003356     1.55560
O1581       O  0.59688594  0.98234044  0.41683202    -0.77470
C1582       C  0.70182820  0.94445356  0.45177432     0.98430
C1583       C  0.63190917  0.93748566  0.49985848     0.93310
O1584       O  0.61115868  0.94725123  0.48644365    -0.82790
O1585       O  0.52671471  0.97843111  0.63294548    -0.82250
C1586       C  0.56259386  0.87540687  0.66366253     0.97100
O1587       O  0.57590838  0.89611944  0.67283524    -0.71370
O1588       O  0.58414598  0.91906554  0.62459739    -0.74960
Al1589     Al  0.56986949  0.93286730  0.65859079     1.48980
C1590       C  0.57884310  0.93128657  0.60203158     0.92360
O1591       O  0.51468454  0.90703108  0.60239243    -0.81180
O1592       O  0.48277877  0.93423217  0.67376828    -0.74740
Al1593     Al  0.52106456  0.94244817  0.61831190     1.90120
O1594       O  0.49314234  0.88832686  0.63877873    -0.73810
O1595       O  0.52505988  0.92257051  0.70624635    -0.73660
O1596       O  0.53647324  0.87499139  0.66681249    -0.79320
O1597       O  0.56038272  0.94818881  0.69267522    -0.77520
O1598       O  0.53398122  0.92734079  0.64930274    -1.13650
O1599       O  0.57043321  0.97094759  0.64602621    -0.72850
C1600       C  0.55044717  0.98743809  0.64022528     0.97870
C1601       C  0.49967856  0.88794946  0.61296758     0.94260
Al1602     Al  0.51149818  0.90640959  0.67042182     1.55560
O1603       O  0.55586131  0.94381384  0.59854104    -0.77470
C1604       C  0.54184821  0.94291410  0.71033646     0.98430
C1605       C  0.47116842  0.94537851  0.65288020     0.93310
O1606       O  0.48309866  0.94558577  0.62946776    -0.82790
O1607       O  0.72362581  0.76470502  0.63018879    -0.82250
C1608       C  0.62896474  0.80789601  0.58644835     0.97100
O1609       O  0.65171136  0.81897391  0.57815203    -0.71370
O1610       O  0.67175908  0.82731418  0.62695081    -0.74960
Al1611     Al  0.68703048  0.81025138  0.59587394     1.48980
C1612       C  0.67657461  0.82004902  0.65156744     0.92360
O1613       O  0.64773789  0.75657788  0.64794407    -0.81180
O1614       O  0.68317352  0.72624142  0.57904841    -0.74740
Al1615     Al  0.68529378  0.76127624  0.63750781     1.90120
O1616       O  0.63426123  0.73513035  0.60983315    -0.73810
O1617       O  0.67415927  0.77006804  0.54649240    -0.73660
O1618       O  0.62597803  0.78194739  0.58329976    -0.79320
O1619       O  0.70565087  0.79765974  0.56416992    -0.77520
O1620       O  0.67626223  0.77558097  0.60487639    -1.13650
O1621       O  0.72298113  0.80776575  0.61359191    -0.72850
C1622       C  0.73566691  0.78749213  0.62501190     0.97870
C1623       C  0.63079020  0.74080047  0.63557306     0.94260
Al1624     Al  0.65582142  0.75524781  0.58097929     1.55560
O1625       O  0.68439173  0.79555057  0.65759463    -0.77470
C1626       C  0.69807819  0.78181844  0.54495207     0.98430
C1627       C  0.69196959  0.71376099  0.60062459     0.93310
O1628       O  0.68850668  0.72384430  0.62472916    -0.82790
O1629       O  0.22983925  0.59919575  0.78952396    -0.82250
C1630       C  0.31960759  0.57388852  0.85695571     0.97100
O1631       O  0.29753795  0.55885102  0.85928884    -0.71370
O1632       O  0.25428037  0.59024418  0.86596715    -0.74960
Al1633     Al  0.26215491  0.56309513  0.83763632     1.48980
C1634       C  0.24346700  0.61404054  0.86257328     0.92360
O1635       O  0.29003707  0.63992203  0.81827521    -0.81180
O1636       O  0.29686550  0.57851960  0.76273910    -0.74740
Al1637     Al  0.26035315  0.61818494  0.80404968     1.90120
O1638       O  0.32224667  0.61746974  0.79475676    -0.73810
O1639       O  0.30965384  0.54032001  0.79996678    -0.73660
O1640       O  0.32752939  0.58209296  0.83337136    -0.79320
O1641       O  0.26664975  0.53211384  0.81067610    -0.77520
O1642       O  0.27752367  0.58698985  0.81378595    -1.13650
O1643       O  0.22439067  0.56687013  0.82215993    -0.72850
C1644       C  0.21494757  0.58141488  0.80187914     0.97870
C1645       C  0.31468226  0.63812916  0.80909133     0.94260
Al1646     Al  0.31123041  0.57982828  0.79904162     1.55560
O1647       O  0.24186628  0.62480923  0.83861484    -0.77470
C1648       C  0.28792577  0.52637512  0.79592202     0.98430
C1649       C  0.28615008  0.60001630  0.75196619     0.93310
O1650       O  0.27457282  0.61870752  0.76668588    -0.82790
O1651       O  0.46393485  0.62768536  0.01045208    -0.82250
C1652       C  0.39331242  0.64431346  0.92208366     0.97100
O1653       O  0.38894819  0.65941579  0.94388767    -0.71370
O1654       O  0.38663712  0.62747947  0.98621395    -0.74960
Al1655     Al  0.41119765  0.65759403  0.97936358     1.48980
C1656       C  0.39282697  0.60417583  0.99655504     0.92360
O1657       O  0.44041183  0.58513943  0.94948964    -0.81180
O1658       O  0.48762090  0.65365090  0.94359360    -0.74740
Al1659     Al  0.45169055  0.60771530  0.97949443     1.90120
O1660       O  0.46052763  0.61087151  0.91721787    -0.73810
O1661       O  0.44462411  0.68670335  0.93286973    -0.73660
O1662       O  0.41773564  0.64165871  0.91320237    -0.79320
O1663       O  0.43426623  0.69123448  0.97634485    -0.77520
O1664       O  0.43789028  0.63761611  0.96313628    -1.13650
O1665       O  0.42714185  0.65476093  0.01723023    -0.72850
C1666       C  0.44946482  0.64304768  0.02610758     0.97870
C1667       C  0.44932487  0.58828383  0.92491555     0.94260
Al1668     Al  0.45141101  0.64786194  0.92950067     1.55560
O1669       O  0.41794702  0.59611552  0.99783789    -0.77470
C1670       C  0.44802474  0.69951951  0.95538586     0.98430
C1671       C  0.50090565  0.63287569  0.95293184     0.93310
O1672       O  0.48859970  0.61263065  0.96483806    -0.82790
O1673       O  0.74965830  0.87613898  0.77969365    -0.82250
C1674       C  0.66868069  0.89292866  0.85803278     0.97100
O1675       O  0.69031251  0.90868846  0.85956826    -0.71370
O1676       O  0.73176395  0.87491775  0.85895363    -0.74960
Al1677     Al  0.72353805  0.90557574  0.83471651     1.48980
C1678       C  0.74163131  0.85162246  0.85182147     0.92360
O1679       O  0.69164774  0.83323919  0.80845616    -0.81180
O1680       O  0.68050082  0.90094492  0.76137632    -0.74740
Al1681     Al  0.72023699  0.85595549  0.79477445     1.90120
O1682       O  0.65684978  0.85870453  0.79234113    -0.73810
O1683       O  0.67450320  0.93494163  0.80442987    -0.73660
O1684       O  0.65650392  0.89039551  0.83496812    -0.79320
O1685       O  0.71884659  0.93905991  0.81140864    -0.77520
O1686       O  0.70481570  0.88569895  0.80977404    -1.13650
O1687       O  0.76002417  0.90235780  0.81586496    -0.72850
C1688       C  0.76671795  0.89121360  0.79263971     0.97870
C1689       C  0.66628655  0.83586121  0.80177706     0.94260
Al1690     Al  0.66994845  0.89591566  0.79925955     1.55560
O1691       O  0.74162363  0.84430376  0.82656177    -0.77470
C1692       C  0.69697441  0.94729518  0.79894025     0.98430
C1693       C  0.68890508  0.87985637  0.74806680     0.93310
O1694       O  0.70251047  0.86045179  0.75985329    -0.82790
O1695       O  0.53158817  0.85604663  0.01050508    -0.82250
C1696       C  0.60698929  0.82259958  0.93173868     0.97100
O1697       O  0.60641277  0.80898394  0.95485591    -0.71370
O1698       O  0.60928749  0.84326915  0.99571253    -0.74960
Al1699     Al  0.58133504  0.81623812  0.98691963     1.48980
C1700       C  0.60570824  0.86819098  0.00317154     0.92360
O1701       O  0.56675904  0.89046735  0.94932671    -0.81180
O1702       O  0.51024176  0.82928592  0.94289817    -0.74740
Al1703     Al  0.54944293  0.87175685  0.97963283     1.90120
O1704       O  0.54602779  0.86555070  0.91718860    -0.73810
O1705       O  0.54901248  0.78966143  0.93796199    -0.73660
O1706       O  0.58470727  0.82972278  0.91986090    -0.79320
O1707       O  0.55455740  0.78566791  0.98244402    -0.77520
O1708       O  0.55989227  0.83899126  0.96676212    -1.13650
O1709       O  0.56166236  0.82278575  0.02183364    -0.72850
C1710       C  0.54078069  0.83821592  0.02762950     0.97870
C1711       C  0.55931213  0.88705954  0.92429421     0.94260
Al1712     Al  0.54853901  0.82891977  0.93241804     1.55560
O1713       O  0.58223902  0.87980956  0.00051490    -0.77470
C1714       C  0.54248269  0.77777418  0.96039764     0.98430
C1715       C  0.49961565  0.85236810  0.95012086     0.93310
O1716       O  0.51399512  0.87117695  0.96181214    -0.82790
O1717       O  0.61533726  0.51450587  0.98288261    -0.82250
C1718       C  0.66208095  0.56137803  0.89205817     0.97100
O1719       O  0.67063742  0.57060880  0.91542273    -0.71370
O1720       O  0.62093843  0.57820598  0.93325976    -0.74960
Al1721     Al  0.65136840  0.56079190  0.94931048     1.48980
C1722       C  0.59610671  0.57177187  0.93739653     0.92360
O1723       O  0.60075735  0.50965679  0.90602465    -0.81180
O1724       O  0.66807815  0.47688499  0.94359677    -0.74740
Al1725     Al  0.60948553  0.51254948  0.94428250     1.90120
O1726       O  0.63920333  0.48754481  0.89419891    -0.73810
O1727       O  0.70117519  0.52141023  0.93627283    -0.73660
O1728       O  0.66521849  0.53547354  0.88760245    -0.79320
O1729       O  0.68248305  0.54748156  0.96856093    -0.77520
O1730       O  0.64262769  0.52672020  0.93717018    -1.13650
O1731       O  0.63246759  0.55728125  0.98414241    -0.72850
C1732       C  0.62070547  0.53672884  0.99578034     0.97870
C1733       C  0.61361295  0.49333242  0.88989562     0.94260
Al1734     Al  0.66711890  0.50712888  0.91679319     1.55560
O1735       O  0.58925834  0.54722206  0.94408862    -0.77470
C1736       C  0.70235855  0.53253822  0.96049288     0.98430
C1737       C  0.64610464  0.46409775  0.95118610     0.93310
O1738       O  0.62213286  0.47452932  0.94686663    -0.82790
O1739       O  0.61500655  0.72193935  0.77847129    -0.82250
C1740       C  0.57896389  0.62588012  0.82597467     0.97100
O1741       O  0.56920601  0.64865829  0.83511204    -0.71370
O1742       O  0.61971519  0.66689277  0.83932042    -0.74960
Al1743     Al  0.58718072  0.68282017  0.82530963     1.48980
C1744       C  0.64366302  0.67235045  0.83049766     0.92360
O1745       O  0.63882636  0.64776330  0.76867237    -0.81180
O1746       O  0.56691824  0.67594514  0.74017445    -0.74740
Al1747     Al  0.62564706  0.68425189  0.77408765     1.90120
O1748       O  0.60037291  0.62913910  0.75195784    -0.73810
O1749       O  0.53703469  0.66941013  0.78651228    -0.73660
O1750       O  0.57610074  0.62149987  0.80009690    -0.79320
O1751       O  0.55478795  0.70101814  0.81433006    -0.77520
O1752       O  0.59464572  0.67269442  0.78998047    -1.13650
O1753       O  0.60413569  0.71837666  0.82301960    -0.72850
C1754       C  0.61134645  0.73275204  0.80215877     0.97870
C1755       C  0.62664595  0.62833377  0.75592823     0.94260
Al1756     Al  0.57126114  0.65047500  0.77145242     1.55560
O1757       O  0.64745742  0.68404188  0.80713975    -0.77470
C1758       C  0.53561724  0.69343486  0.79829156     0.98430
C1759       C  0.58727796  0.68650871  0.72693253     0.93310
O1760       O  0.61141885  0.68671300  0.73733580    -0.82790
O1761       O  0.77859978  0.73877725  0.88161804    -0.82250
C1762       C  0.85214080  0.65797213  0.91137313     0.97100
O1763       O  0.85502443  0.68142541  0.92381503    -0.71370
O1764       O  0.85718488  0.72246296  0.89126925    -0.74960
Al1765     Al  0.83028096  0.71417343  0.91915672     1.48980
C1766       C  0.85251908  0.73265913  0.86767313     0.92360
O1767       O  0.81434908  0.67860189  0.84617254    -0.81180
O1768       O  0.75617508  0.67260920  0.90546972    -0.74740
Al1769     Al  0.79679098  0.70855171  0.86497787     1.90120
O1770       O  0.79461927  0.64574270  0.87190322    -0.73810
O1771       O  0.79037557  0.66815120  0.94706627    -0.73660
O1772       O  0.82904671  0.64577936  0.91289121    -0.79320
O1773       O  0.80601366  0.71043290  0.95166113    -0.77520
O1774       O  0.80711162  0.69488456  0.89781504    -1.13650
O1775       O  0.81030340  0.74983958  0.91346371    -0.72850
C1776       C  0.78872364  0.75591446  0.89884385     0.97870
C1777       C  0.80676495  0.65351264  0.84970631     0.94260
Al1778     Al  0.79387343  0.66115679  0.90872104     1.55560
O1779       O  0.82867243  0.73089618  0.85699736    -0.77470
C1780       C  0.79074329  0.69067080  0.96016936     0.98430
C1781       C  0.74682529  0.67865520  0.88172092     0.93310
O1782       O  0.76196810  0.69037902  0.86368838    -0.82790
O1783       O  0.01403233  0.52635740  0.85647930    -0.82250
C1784       C  0.92403040  0.59519679  0.83730320     0.97100
O1785       O  0.94573594  0.59799147  0.82172882    -0.71370
O1786       O  0.99039565  0.60295517  0.85163753    -0.74960
Al1787     Al  0.98121869  0.57590718  0.82379792     1.48980
C1788       C  0.00222073  0.59815438  0.87463581     0.92360
O1789       O  0.95551232  0.55226265  0.90084815    -0.81180
O1790       O  0.94638132  0.50009597  0.83643722    -0.74740
Al1791     Al  0.98433467  0.53987173  0.87704539     1.90120
O1792       O  0.92218807  0.53042789  0.87826170    -0.73810
O1793       O  0.93254666  0.54094089  0.80109711    -0.73660
O1794       O  0.91656593  0.57140672  0.84541583    -0.79320
O1795       O  0.97566278  0.55032736  0.79238478    -0.77520
O1796       O  0.96625176  0.55120386  0.84717365    -1.13650
O1797       O  0.01906771  0.55971329  0.82504717    -0.72850
C1798       C  0.02840023  0.53840736  0.83813039     0.97870
C1799       C  0.93134402  0.54193525  0.89998165     0.94260
Al1800     Al  0.93218892  0.53701204  0.84046763     1.55560
O1801       O  0.00301670  0.57384936  0.88467346    -0.77470
C1802       C  0.95386249  0.53670488  0.78650945     0.98430
C1803       C  0.95934555  0.48865802  0.85648239     0.93310
O1804       O  0.97049800  0.50300398  0.87561909    -0.82790
O1805       O  0.97865746  0.61257551  0.52889037    -0.82250
C1806       C  0.87856418  0.65149758  0.56462356     0.97100
O1807       O  0.90029176  0.66098061  0.57634447    -0.71370
O1808       O  0.91980651  0.61124902  0.58564743    -0.76880
Al1809     Al  0.93598239  0.64321979  0.57051209     1.48980
C1810       C  0.92692474  0.58697938  0.57877281     0.92360
O1811       O  0.90582729  0.58942500  0.51191330    -0.81180
O1812       O  0.93676032  0.66063662  0.48486748    -0.74740
Al1813     Al  0.94161085  0.60247293  0.52120425     1.90120
O1814       O  0.88962833  0.62779334  0.49229662    -0.73810
O1815       O  0.92471620  0.69171276  0.52882136    -0.73660
O1816       O  0.87725670  0.65286567  0.53835630    -0.79320
O1817       O  0.95482447  0.67525220  0.55910897    -0.77520
O1818       O  0.92879675  0.63409493  0.53477040    -1.13650
O1819       O  0.97209720  0.62638474  0.57217909    -0.72850
C1820       C  0.98776753  0.61741797  0.55302369     0.97870
C1821       C  0.88804752  0.60171122  0.49676919     0.94260
Al1822     Al  0.90846261  0.65702119  0.51311671     1.55560
O1823       O  0.93803489  0.58188078  0.55533639    -0.77470
C1824       C  0.94798569  0.69367163  0.54176820     0.98430
C1825       C  0.94854075  0.63995909  0.47335544     0.93310
O1826       O  0.94799641  0.61600729  0.48444271    -0.82790
O1827       O  0.77577969  0.60491286  0.73937703    -0.82250
C1828       C  0.81199410  0.57680075  0.63537253     0.97100
O1829       O  0.82539334  0.56748561  0.65609638    -0.71370
O1830       O  0.83271408  0.61501288  0.68043038    -0.74960
Al1831     Al  0.81892692  0.58058130  0.69316057     1.48980
C1832       C  0.82677478  0.63694017  0.69338192     0.92360
O1833       O  0.76126343  0.63634678  0.66843092    -0.81180
O1834       O  0.73179759  0.56365666  0.69391981    -0.74740
Al1835     Al  0.76896828  0.61977602  0.70343735     1.90120
O1836       O  0.74145798  0.59956191  0.64904560    -0.73810
O1837       O  0.77520638  0.53260763  0.68154211    -0.73660
O1838       O  0.78583885  0.57367651  0.63502249    -0.79320
O1839       O  0.81005298  0.54610649  0.70776890    -0.77520
O1840       O  0.78270625  0.58944559  0.68775611    -1.13650
O1841       O  0.81952958  0.59240107  0.73123688    -0.72850
C1842       C  0.80008179  0.59886705  0.74795729     0.97870
C1843       C  0.74665695  0.62556688  0.64924642     0.94260
Al1844     Al  0.76075206  0.56838498  0.66631131     1.55560
O1845       O  0.80306733  0.64009338  0.70448866    -0.77470
C1846       C  0.79180673  0.52841833  0.70201847     0.98430
C1847       C  0.71987929  0.58398374  0.70581965     0.93310
O1848       O  0.73155357  0.60744934  0.70697904    -0.82790
O1849       O  0.78157327  0.22743514  0.62043101    -0.82250
C1850       C  0.84846192  0.31332108  0.58929441     0.97100
O1851       O  0.85274691  0.29000486  0.57683000    -0.71370
O1852       O  0.85843374  0.25136204  0.61225946    -0.74960
Al1853     Al  0.83150216  0.25519486  0.58353127     1.48980
C1854       C  0.85413437  0.24291186  0.63663755     0.92360
O1855       O  0.80854438  0.29202236  0.65375888    -0.81180
O1856       O  0.75411290  0.29075470  0.59116953    -0.74740
Al1857     Al  0.79537731  0.26007354  0.63600769     1.90120
O1858       O  0.78629742  0.32211708  0.62685962    -0.73810
O1859       O  0.79149854  0.29720140  0.55223759    -0.73660
O1860       O  0.82423968  0.32333744  0.58963772    -0.79320
O1861       O  0.80674533  0.25450640  0.55150315    -0.77520
O1862       O  0.80597496  0.27332724  0.60336490    -1.13650
O1863       O  0.81589704  0.21807384  0.59091575    -0.72850
C1864       C  0.79444766  0.21063895  0.60486743     0.97870
C1865       C  0.79974793  0.31639650  0.64889298     0.94260
Al1866     Al  0.79045313  0.30552220  0.59064167     1.55560
O1867       O  0.82976241  0.24253047  0.64652063    -0.77470
C1868       C  0.79075956  0.27320860  0.54198042     0.98430
C1869       C  0.74343769  0.28234002  0.61363355     0.93310
O1870       O  0.75829745  0.27393763  0.63378894    -0.82790
O1871       O  0.00463365  0.45479854  0.64060219    -0.82250
C1872       C  0.91837984  0.38164665  0.66086313     0.97100
O1873       O  0.94055091  0.37949461  0.67573148    -0.71370
O1874       O  0.98165380  0.37578265  0.64196650    -0.74960
Al1875     Al  0.97518229  0.40195663  0.67090483     1.48980
C1876       C  0.99348612  0.38116842  0.61916882     0.92360
O1877       O  0.94793734  0.42615519  0.59536576    -0.81180
O1878       O  0.93647862  0.47751215  0.65971141    -0.74740
Al1879     Al  0.97594403  0.43977513  0.61914601     1.90120
O1880       O  0.91285302  0.44445925  0.61903729    -0.73810
O1881       O  0.92793135  0.43756213  0.69658246    -0.73660
O1882       O  0.90986517  0.40524626  0.65346158    -0.79320
O1883       O  0.97162519  0.42713230  0.70256273    -0.77520
O1884       O  0.95861625  0.42702775  0.64890387    -1.13650
O1885       O  0.01291513  0.41776916  0.66679937    -0.72850
C1886       C  0.02103635  0.44038688  0.65526309     0.97870
C1887       C  0.92302580  0.43476969  0.59671181     0.94260
Al1888     Al  0.92445036  0.43998399  0.65699684     1.55560
O1889       O  0.99652191  0.40613092  0.61100180    -0.77470
C1890       C  0.95047384  0.44142256  0.70954741     0.98430
C1891       C  0.94503638  0.48919662  0.63775815     0.93310
O1892       O  0.95915806  0.47591365  0.61983311    -0.82790
O1893       O  0.02034831  0.50172992  0.37192618    -0.82250
C1894       C  0.06819490  0.59592897  0.33267349     0.97100
O1895       O  0.07746499  0.57303469  0.32312284    -0.71370
O1896       O  0.08374720  0.55233758  0.37209191    -0.74960
Al1897     Al  0.06729019  0.53834446  0.34025778     1.48980
C1898       C  0.07629663  0.54747621  0.39653777     0.92360
O1899       O  0.01501837  0.57681996  0.39362743    -0.81180
O1900       O  0.98244258  0.54718312  0.32357696    -0.74740
Al1901     Al  0.01808647  0.53973479  0.38145571     1.90120
O1902       O  0.99514881  0.59407947  0.35598762    -0.73810
O1903       O  0.02732214  0.55457523  0.29159570    -0.73660
O1904       O  0.04236889  0.60078048  0.32974834    -0.79320
O1905       O  0.05500280  0.52168806  0.30765583    -0.77520
O1906       O  0.03281235  0.54991136  0.34930308    -1.13650
O1907       O  0.06371015  0.50227141  0.35643521    -0.72850
C1908       C  0.04272750  0.48921921  0.36564855     0.97870
C1909       C  0.00099250  0.59577156  0.38182566     0.94260
Al1910     Al  0.01359856  0.57253681  0.32642224     1.55560
O1911       O  0.05219424  0.53843760  0.40204683    -0.77470
C1912       C  0.03982288  0.53112763  0.28860250     0.98430
C1913       C  0.96942980  0.53797982  0.34474150     0.93310
O1914       O  0.98032078  0.53877736  0.36872972    -0.82790
O1915       O  0.22532285  0.70521037  0.37126396    -0.82250
C1916       C  0.13209340  0.66017266  0.41583358     0.97100
O1917       O  0.15531191  0.65095208  0.42472956    -0.71370
O1918       O  0.17248443  0.64357567  0.37436151    -0.74960
Al1919     Al  0.18896547  0.65987038  0.40508163     1.48980
C1920       C  0.17769689  0.65004713  0.34966447     0.92360
O1921       O  0.14920784  0.71321569  0.35273528    -0.81180
O1922       O  0.18266407  0.74473014  0.42146182    -0.74740
Al1923     Al  0.18686169  0.70866557  0.36338606     1.90120
O1924       O  0.13473089  0.73346534  0.39125913    -0.73810
O1925       O  0.17669124  0.70035484  0.45406720    -0.73660
O1926       O  0.12777206  0.68613359  0.41808407    -0.79320
O1927       O  0.20828825  0.67273155  0.43602793    -0.77520
O1928       O  0.17780525  0.69447367  0.39609927    -1.13650
O1929       O  0.22388999  0.66173699  0.38651243    -0.72850
C1930       C  0.23713591  0.68218194  0.37654300     0.97870
C1931       C  0.13209161  0.72886657  0.36524984     0.94260
Al1932     Al  0.15685277  0.71427111  0.41995652     1.55560
O1933       O  0.18635615  0.67410284  0.34318513    -0.77470
C1934       C  0.20099677  0.68905862  0.45504911     0.98430
C1935       C  0.19102644  0.75744630  0.39982846     0.93310
O1936       O  0.18958154  0.74632401  0.37598472    -0.82790
O1937       O  0.70569065  0.23214613  0.38374194    -0.82250
C1938       C  0.63424099  0.31203941  0.42043095     0.97100
O1939       O  0.62969187  0.28701763  0.42862650    -0.71370
O1940       O  0.62809606  0.24556197  0.39715522    -0.74960
Al1941     Al  0.65544096  0.25472062  0.42457504     1.48980
C1942       C  0.63197590  0.23752792  0.37266000     0.92360
O1943       O  0.66797675  0.29368693  0.35270915    -0.81180
O1944       O  0.72890655  0.29838120  0.40734494    -0.74740
Al1945     Al  0.68668871  0.26311842  0.36913280     1.90120
O1946       O  0.68657038  0.32597768  0.37980240    -0.73810
O1947       O  0.70042427  0.29788218  0.45081813    -0.73660
O1948       O  0.65759814  0.32241826  0.42550980    -0.79320
O1949       O  0.67985790  0.25810290  0.45766863    -0.77520
O1950       O  0.67800047  0.27497407  0.40313291    -1.13650
O1951       O  0.67675027  0.21997909  0.41811085    -0.72850
C1952       C  0.69735822  0.21464732  0.40180148     0.97870
C1953       C  0.67452200  0.31883342  0.35745636     0.94260
Al1954     Al  0.69183793  0.30811007  0.41495188     1.55560
O1955       O  0.65517236  0.24099495  0.36126596    -0.77470
C1956       C  0.69876315  0.27549119  0.46390455     0.98430
C1957       C  0.73717626  0.29247797  0.38343075     0.93310
O1958       O  0.72115154  0.28153276  0.36595236    -0.82790
O1959       O  0.48130221  0.45548545  0.36023530    -0.82250
C1960       C  0.57009564  0.38443504  0.34404244     0.97100
O1961       O  0.54825350  0.38080659  0.32882678    -0.71370
O1962       O  0.50619248  0.37873750  0.36203582    -0.74960
Al1963     Al  0.51279355  0.40301652  0.33104411     1.48980
C1964       C  0.49698336  0.38555659  0.38567581     0.92360
O1965       O  0.54289002  0.43370871  0.40273121    -0.81180
O1966       O  0.54873510  0.47938073  0.33314850    -0.74740
Al1967     Al  0.51269134  0.44414751  0.38007359     1.90120
O1968       O  0.57487112  0.45385554  0.37692787    -0.73810
O1969       O  0.55991311  0.43439777  0.30216551    -0.73660
O1970       O  0.57849531  0.40884572  0.34870794    -0.79320
O1971       O  0.51603124  0.42620061  0.29710918    -0.77520
O1972       O  0.52902061  0.42988142  0.35066742    -1.13650
O1973       O  0.47488946  0.41858755  0.33364281    -0.72850
C1974       C  0.46578798  0.44080020  0.34510710     0.97870
C1975       C  0.56744243  0.44239457  0.39941339     0.94260
Al1976     Al  0.56283367  0.44295009  0.34058666     1.55560
O1977       O  0.49542534  0.41081646  0.39279072    -0.77470
C1978       C  0.53772720  0.43898056  0.28902092     0.98430
C1979       C  0.53692247  0.49295037  0.35249325     0.93310
O1980       O  0.52623142  0.48074329  0.37347007    -0.82790
O1981       O  0.03196618  0.35583312  0.51114121    -0.82250
C1982       C  0.09940123  0.32572877  0.42546689     0.97100
O1983       O  0.10147941  0.31182569  0.44841590    -0.71370
O1984       O  0.10563769  0.34337210  0.49204350    -0.74960
Al1985     Al  0.07809909  0.31588163  0.48246979     1.48980
C1986       C  0.10264151  0.36891434  0.49752962     0.92360
O1987       O  0.05752102  0.39047745  0.44589675    -0.81180
O1988       O  0.00407207  0.32639459  0.44525051    -0.74740
Al1989     Al  0.04496384  0.37125100  0.47808834     1.90120
O1990       O  0.03338456  0.36531051  0.41673597    -0.73810
O1991       O  0.04492421  0.28974942  0.43421482    -0.73660
O1992       O  0.07585234  0.33245074  0.41571818    -0.79320
O1993       O  0.05244799  0.28428186  0.47795269    -0.77520
O1994       O  0.05484713  0.33872033  0.46440789    -1.13650
O1995       O  0.05951370  0.31944457  0.51836488    -0.72850
C1996       C  0.03999512  0.33571460  0.52611802     0.97870
C1997       C  0.04659645  0.38720012  0.42227492     0.94260
Al1998     Al  0.04089636  0.32888643  0.43087074     1.55560
O1999       O  0.07953618  0.38083283  0.49399302    -0.77470
C2000       C  0.03955131  0.27685363  0.45627176     0.98430
C2001       C  0.99300395  0.34776798  0.45631289     0.93310
O2002       O  0.00760446  0.36791787  0.46541964    -0.82790
O2003       O  0.24748324  0.37770137  0.27596364    -0.82250
C2004       C  0.16413732  0.39637452  0.35248003     0.97100
O2005       O  0.18680557  0.41026011  0.35543533    -0.71370
O2006       O  0.22682824  0.37450763  0.35551865    -0.74960
Al2007     Al  0.22050575  0.40613268  0.33155455     1.48980
C2008       C  0.23670449  0.35136570  0.34773468     0.92360
O2009       O  0.18775317  0.33541283  0.30444129    -0.81180
O2010       O  0.17937349  0.40288372  0.25618863    -0.74740
Al2011     Al  0.21706416  0.35748975  0.29052047     1.90120
O2012       O  0.15366855  0.36174412  0.28804587    -0.73810
O2013       O  0.17380291  0.43745465  0.29865490    -0.73660
O2014       O  0.15319486  0.39491972  0.32882356    -0.79320
O2015       O  0.21784140  0.44026542  0.30862956    -0.77520
O2016       O  0.20202156  0.38744095  0.30553373    -1.13650
O2017       O  0.25722555  0.40138164  0.31419999    -0.72850
C2018       C  0.26476444  0.39045605  0.29115291     0.97870
C2019       C  0.16222312  0.33912812  0.29889578     0.94260
Al2020     Al  0.16792338  0.39879019  0.29394581     1.55560
O2021       O  0.23796131  0.34544184  0.32216390    -0.77470
C2022       C  0.19680039  0.44949215  0.29533394     0.98430
C2023       C  0.18710010  0.38147728  0.24305938     0.93310
O2024       O  0.19961479  0.36163741  0.25524347    -0.82790
O2025       O  0.87069773  0.46638757  0.47865992    -0.82250
C2026       C  0.83010374  0.41303904  0.38908129     0.97100
O2027       O  0.82230985  0.40363463  0.41266361    -0.71370
O2028       O  0.87208976  0.39913455  0.43201746    -0.74960
Al2029     Al  0.83996878  0.41583804  0.44652122     1.48980
C2030       C  0.89576641  0.40676305  0.43980134     0.92360
O2031       O  0.89016664  0.46646107  0.40283234    -0.81180
O2032       O  0.82020852  0.49892534  0.43590516    -0.74740
Al2033     Al  0.87939773  0.46579299  0.44068385     1.90120
O2034       O  0.85141066  0.48654056  0.38792481    -0.73810
O2035       O  0.78886479  0.45348045  0.43107411    -0.73660
O2036       O  0.82605093  0.43857075  0.38376372    -0.79320
O2037       O  0.80776303  0.42816820  0.46404652    -0.77520
O2038       O  0.84736374  0.44980982  0.43294839    -1.13650
O2039       O  0.85727504  0.42241258  0.48223264    -0.72850
C2040       C  0.86680777  0.44460676  0.49304522     0.97870
C2041       C  0.87747390  0.48145114  0.38512960     0.94260
Al2042     Al  0.82287071  0.46767139  0.41109551     1.55560
O2043       O  0.90063105  0.43206871  0.44530601    -0.77470
C2044       C  0.78780031  0.44276670  0.45559773     0.98430
C2045       C  0.84154940  0.51304897  0.44235354     0.93310
O2046       O  0.86589134  0.50334729  0.43897933    -0.82790
O2047       O  0.86817869  0.24654896  0.28036332    -0.82250
C2048       C  0.90676532  0.34314530  0.32399881     0.97100
O2049       O  0.91468749  0.32052325  0.33542777    -0.71370
O2050       O  0.86514558  0.30050884  0.34184886    -0.74960
Al2051     Al  0.89750999  0.28532866  0.32673433     1.48980
C2052       C  0.84114025  0.29464821  0.33337829     0.92360
O2053       O  0.84528791  0.32121502  0.27148902    -0.81180
O2054       O  0.91589579  0.28924186  0.24145373    -0.74740
Al2055     Al  0.85786048  0.28420287  0.27640447     1.90120
O2056       O  0.88350999  0.33733882  0.25161831    -0.73810
O2057       O  0.94709192  0.29780947  0.28599060    -0.73660
O2058       O  0.90979483  0.34576786  0.29797481    -0.79320
O2059       O  0.92997936  0.26763774  0.31575786    -0.77520
O2060       O  0.88944490  0.29512608  0.29136573    -1.13650
O2061       O  0.88094154  0.24886188  0.32457562    -0.72850
C2062       C  0.87275669  0.23500198  0.30364636     0.97870
C2063       C  0.85756038  0.33962772  0.25714099     0.94260
Al2064     Al  0.91286813  0.31609727  0.27115993     1.55560
O2065       O  0.83706714  0.28373801  0.30985044    -0.77470
C2066       C  0.94874384  0.27444739  0.29892685     0.98430
C2067       C  0.89475963  0.27997727  0.22870251     0.93310
O2068       O  0.87070214  0.28199131  0.23912678    -0.82790
O2069       O  0.11733804  0.22361000  0.27652745    -0.82250
C2070       C  0.08220846  0.12617276  0.32299608     0.97100
O2071       O  0.07299916  0.14894227  0.33266927    -0.71370
O2072       O  0.12365034  0.16781903  0.33719184    -0.74960
Al2073     Al  0.09050801  0.18346101  0.32319018     1.48980
C2074       C  0.14739736  0.17442873  0.32833694     0.92360
O2075       O  0.14275575  0.14995750  0.26728012    -0.81180
O2076       O  0.07078625  0.17744012  0.23786216    -0.74740
Al2077     Al  0.12899485  0.18619053  0.27224830     1.90120
O2078       O  0.10477823  0.13106870  0.24961881    -0.73810
O2079       O  0.04089569  0.16899147  0.28410156    -0.73660
O2080       O  0.08005215  0.12244309  0.29698142    -0.79320
O2081       O  0.05763542  0.20106609  0.31217629    -0.77520
O2082       O  0.09816455  0.17387579  0.28785562    -1.13650
O2083       O  0.10667194  0.21957483  0.32112241    -0.72850
C2084       C  0.11279848  0.23435862  0.30013904     0.97870
C2085       C  0.13084579  0.13035308  0.25454593     0.94260
Al2086     Al  0.07527752  0.15151684  0.26887482     1.55560
O2087       O  0.15058182  0.18677278  0.30527433    -0.77470
C2088       C  0.03868758  0.19267102  0.29623092     0.98430
C2089       C  0.09124244  0.18801601  0.22474549     0.93310
O2090       O  0.11528454  0.18815494  0.23532392    -0.82790
O2091       O  0.11114388  0.00159115  0.47614537    -0.82250
C2092       C  0.15934112  0.05731478  0.39055154     0.97100
O2093       O  0.16591555  0.06510454  0.41492824    -0.71370
O2094       O  0.11406964  0.06801558  0.42813020    -0.74960
Al2095     Al  0.14466903  0.05237720  0.44632249     1.48980
C2096       C  0.08965059  0.06056355  0.43305473     0.92360
O2097       O  0.09937754  0.00166175  0.39879471    -0.81180
O2098       O  0.16711884  0.97039576  0.43717531    -0.74740
Al2099     Al  0.10653628  0.00203617  0.43736808     1.90120
O2100       O  0.13927480  0.98213480  0.38696098    -0.73810
O2101       O  0.19754662  0.01697966  0.43452662    -0.73660
O2102       O  0.16319251  0.03181274  0.38461465    -0.79320
O2103       O  0.17531436  0.04073233  0.46653440    -0.77520
O2104       O  0.13900132  0.01854104  0.43237260    -1.13650
O2105       O  0.12422145  0.04559642  0.48013449    -0.72850
C2106       C  0.11423644  0.02338288  0.49055471     0.97870
C2107       C  0.11344657  0.98685542  0.38221376     0.94260
Al2108     Al  0.16541816  0.00184183  0.41211939     1.55560
O2109       O  0.08413200  0.03555431  0.43940746    -0.77470
C2110       C  0.19698305  0.02836289  0.45873722     0.98430
C2111       C  0.14582898  0.95569255  0.44279606     0.93310
O2112       O  0.12141065  0.96456254  0.43747881    -0.82790
C2113       C  0.13082633  0.06579816  0.34625371    -0.21760
C2114       C  0.14190289  0.07596829  0.37161809    -0.09800
C2115       C  0.13191503  0.10216976  0.38099091     0.29060
C2116       C  0.11062313  0.11653067  0.36655768    -0.21760
C2117       C  0.10008894  0.10690085  0.34082605    -0.09810
C2118       C  0.11077900  0.08123146  0.33076845     0.29060
F2119       F  0.10180716  0.07086240  0.30599644    -0.20340
H2120       H  0.13748548  0.04561974  0.33843876     0.17430
H2121       H  0.10318249  0.13608487  0.37518850     0.17440
F2122       F  0.14201597  0.11375660  0.40477676    -0.20320
C2123       C  0.99876646  0.26097425  0.28690725    -0.21760
C2124       C  0.97158127  0.25334758  0.29458889    -0.09800
C2125       C  0.96599819  0.22448177  0.29924877     0.29060
C2126       C  0.98733221  0.20427637  0.29779161    -0.21760
C2127       C  0.01476696  0.21222090  0.29189677    -0.09810
C2128       C  0.02016788  0.24071289  0.28586770     0.29060
F2129       F  0.04653496  0.24906693  0.27970168    -0.20340
H2130       H  0.00371910  0.28270207  0.28288044     0.17430
H2131       H  0.98264054  0.18265917  0.30268677     0.17440
F2132       F  0.93981929  0.21564131  0.30573198    -0.20320
C2133       C  0.87854598  0.40137707  0.37139601    -0.21760
C2134       C  0.84937785  0.39651126  0.37057432    -0.09800
C2135       C  0.83960889  0.37628197  0.35202257     0.29060
C2136       C  0.85865601  0.36070496  0.33579333    -0.21760
C2137       C  0.88784911  0.36318067  0.33911894    -0.09810
C2138       C  0.89765304  0.38445752  0.35653797     0.29060
F2139       F  0.92553312  0.38892755  0.35920036    -0.20340
H2140       H  0.88673515  0.41785946  0.38425817     0.17430
H2141       H  0.85057725  0.34619222  0.32073886     0.17440
F2142       F  0.81173059  0.37196498  0.34926112    -0.20320
C2143       C  0.12207854  0.31000152  0.28422286    -0.21760
C2144       C  0.14284919  0.31613131  0.30385204    -0.09800
C2145       C  0.14736550  0.29786949  0.32640213     0.29060
C2146       C  0.13472314  0.27184207  0.32664766    -0.21760
C2147       C  0.11807257  0.26384459  0.30405128    -0.09810
C2148       C  0.11052297  0.28340568  0.28355243     0.29060
F2149       F  0.09354050  0.27627086  0.26204143    -0.20340
H2150       H  0.11624315  0.32477985  0.26824893     0.17430
H2151       H  0.13999300  0.25710977  0.34310883     0.17440
F2152       F  0.16444075  0.30496556  0.34778075    -0.20320
C2153       C  0.92395448  0.36492759  0.42684776    -0.21760
C2154       C  0.91677537  0.38576506  0.44609567    -0.09800
C2155       C  0.92982353  0.38659418  0.47222794     0.29060
C2156       C  0.95237441  0.36929477  0.47756445    -0.21760
C2157       C  0.96292704  0.35207935  0.45638372    -0.09810
C2158       C  0.94748200  0.34823841  0.43174092     0.29060
F2159       F  0.95707606  0.33132680  0.41109744    -0.20340
H2160       H  0.91281457  0.36307440  0.40732186     0.17430
H2161       H  0.96387248  0.37220701  0.49683512     0.17440
F2162       F  0.92182910  0.40528979  0.49198005    -0.20320
C2163       C  0.14255543  0.35635832  0.42032120    -0.21760
C2164       C  0.12340890  0.33683739  0.40897035    -0.09800
C2165       C  0.11967311  0.33691208  0.38000376     0.29060
C2166       C  0.13193567  0.35725623  0.36340146    -0.21760
C2167       C  0.15072199  0.37738634  0.37401479    -0.09810
C2168       C  0.15678559  0.37598957  0.40287258     0.29060
F2169       F  0.17499625  0.39431090  0.41439233    -0.20340
H2170       H  0.14512884  0.35759816  0.44275727     0.17430
H2171       H  0.12611239  0.35696045  0.34160215     0.17440
F2172       F  0.10129379  0.31901484  0.36789496    -0.20320
C2173       C  0.78833099  0.29123201  0.39018988    -0.21760
C2174       C  0.76498595  0.29975389  0.37464057    -0.09800
C2175       C  0.76813462  0.31207438  0.34827697     0.29060
C2176       C  0.79413796  0.31279885  0.33604691    -0.21760
C2177       C  0.81701642  0.30122437  0.35003052    -0.09810
C2178       C  0.81467326  0.29191850  0.37774673     0.29060
F2179       F  0.83697714  0.28070141  0.39135561    -0.20340
H2180       H  0.78583382  0.28186062  0.41068647     0.17430
H2181       H  0.79609299  0.32048858  0.31478936     0.17440
F2182       F  0.74571017  0.32119835  0.33341517    -0.20320
C2183       C  0.58986628  0.31977955  0.38966105    -0.21760
C2184       C  0.61499179  0.32950737  0.40195223    -0.09800
C2185       C  0.62513480  0.35561760  0.39227081     0.29060
C2186       C  0.61199380  0.37025740  0.37086748    -0.21760
C2187       C  0.58625517  0.36189113  0.35951227    -0.09810
C2188       C  0.57513618  0.33620831  0.36932504     0.29060
F2189       F  0.54987182  0.32740134  0.36005212    -0.20340
H2190       H  0.58152232  0.29968915  0.39590602     0.17430
H2191       H  0.62163671  0.38969794  0.36434782     0.17440
F2192       F  0.64848072  0.36754376  0.40307912    -0.20320
C2193       C  0.02296075  0.41730290  0.38792337    -0.21760
C2194       C  0.04757148  0.40962213  0.40187251    -0.09800
C2195       C  0.07201712  0.42527972  0.39840385     0.29060
C2196       C  0.07102442  0.45014540  0.38336962    -0.21760
C2197       C  0.04547849  0.45969126  0.37245065    -0.09810
C2198       C  0.02177024  0.44250354  0.37342922     0.29060
F2199       F  0.99708011  0.45101793  0.36219572    -0.20340
H2200       H  0.00409459  0.40499635  0.39020783     0.17430
H2201       H  0.08954458  0.46313144  0.38259478     0.17440
F2202       F  0.09629765  0.41733626  0.41087853    -0.20320
C2203       C  0.93970059  0.49624736  0.33993894    -0.21760
C2204       C  0.94143116  0.52535318  0.34288768    -0.09800
C2205       C  0.91830017  0.53997671  0.35374063     0.29060
C2206       C  0.89493965  0.52539884  0.36383229    -0.21760
C2207       C  0.89476826  0.49603207  0.36402329    -0.09810
C2208       C  0.91667672  0.48162218  0.35061070     0.29060
F2209       F  0.91721948  0.45325340  0.35051342    -0.20340
H2210       H  0.95757015  0.48455555  0.33229990     0.17430
H2211       H  0.87865325  0.53691039  0.37461691     0.17440
F2212       F  0.91978970  0.56800716  0.35778352    -0.20320
C2213       C  0.12332858  0.61684846  0.38674559    -0.21760
C2214       C  0.11337893  0.64251271  0.39729767    -0.09800
C2215       C  0.08840003  0.65317477  0.38543917     0.29060
C2216       C  0.07427459  0.63856577  0.36399982    -0.21760
C2217       C  0.08549945  0.61391733  0.35218255    -0.09810
C2218       C  0.11116046  0.60418041  0.36322698     0.29060
F2219       F  0.12458802  0.58200859  0.35164372    -0.20340
H2220       H  0.14211425  0.60748625  0.39531990     0.17430
H2221       H  0.05448185  0.64671950  0.35652254     0.17440
F2222       F  0.07749504  0.67775848  0.39450551    -0.20320
C2223       C  0.98587047  0.35159436  0.57811113    -0.21760
C2224       C  0.00289032  0.35858634  0.60075674    -0.09800
C2225       C  0.03064098  0.34884774  0.60157259     0.29060
C2226       C  0.04251177  0.33653841  0.57778968    -0.21760
C2227       C  0.02640501  0.33343650  0.55353258    -0.09810
C2228       C  0.99742259  0.33856194  0.55478396     0.29060
F2229       F  0.98116760  0.33466127  0.53188273    -0.20340
H2230       H  0.96429578  0.35860769  0.57739210     0.17430
H2231       H  0.06482860  0.33257894  0.57728809     0.17440
F2232       F  0.04686619  0.35351861  0.62427141    -0.20320
C2233       C  0.88209014  0.42298070  0.56724664    -0.21760
C2234       C  0.90718152  0.43747671  0.57117844    -0.09800
C2235       C  0.91702544  0.45601859  0.55085412     0.29060
C2236       C  0.90220401  0.45968833  0.52636288    -0.21760
C2237       C  0.87789742  0.44414175  0.52138100    -0.09810
C2238       C  0.86762508  0.42588673  0.54202665     0.29060
F2239       F  0.84403350  0.41080680  0.53766761    -0.20340
H2240       H  0.87429200  0.40894192  0.58325937     0.17430
H2241       H  0.91072053  0.47357955  0.51058933     0.17440
F2242       F  0.94107056  0.47055799  0.55473416    -0.20320
C2243       C  0.74328182  0.25562531  0.52810321    -0.21760
C2244       C  0.76931781  0.26737308  0.52036887    -0.09800
C2245       C  0.77197488  0.27919827  0.49381986     0.29060
C2246       C  0.74904680  0.28016344  0.47577976    -0.21760
C2247       C  0.72244538  0.26988616  0.48368952    -0.09810
C2248       C  0.71997672  0.25670123  0.50985952     0.29060
F2249       F  0.69488797  0.24673712  0.51852989    -0.20340
H2250       H  0.74057721  0.24709180  0.54893325     0.17430
H2251       H  0.75201796  0.29004992  0.45563553     0.17440
F2252       F  0.79643319  0.29115494  0.48582822    -0.20320
C2253       C  0.85794344  0.35080920  0.62383707    -0.21760
C2254       C  0.86913030  0.32876025  0.60767766    -0.09800
C2255       C  0.89709458  0.32080901  0.61340451     0.29060
C2256       C  0.91336133  0.33598024  0.63329458    -0.21760
C2257       C  0.90146411  0.35808665  0.64908294    -0.09810
C2258       C  0.87304844  0.36409850  0.64462391     0.29060
F2259       F  0.86014383  0.38495204  0.65902697    -0.20340
H2260       H  0.83664065  0.35798966  0.62101746     0.17430
H2261       H  0.93545934  0.33138873  0.63529181     0.17440
F2262       F  0.90891369  0.29919540  0.59938342    -0.20320
C2263       C  0.85437201  0.56238835  0.49863057    -0.21760
C2264       C  0.86630067  0.58454550  0.48343184    -0.09800
C2265       C  0.86170813  0.58620849  0.45447690     0.29060
C2266       C  0.84876400  0.56394727  0.44064692    -0.21760
C2267       C  0.83968745  0.54039115  0.45570429    -0.09810
C2268       C  0.84075528  0.54068007  0.48493820     0.29060
F2269       F  0.83283180  0.51782429  0.49987785    -0.20340
H2270       H  0.85774226  0.56040315  0.52086077     0.17430
H2271       H  0.84879287  0.56363267  0.41800498     0.17440
F2272       F  0.87316259  0.60721025  0.43917237    -0.20320
C2273       C  0.94830111  0.63798864  0.42171801    -0.21760
C2274       C  0.96333263  0.64222597  0.44655593    -0.09800
C2275       C  0.99236403  0.63792089  0.44659917     0.29060
C2276       C  0.00547452  0.62611164  0.42336845    -0.21760
C2277       C  0.98979119  0.61824200  0.39984390    -0.09810
C2278       C  0.96149366  0.62622178  0.39829253     0.29060
F2279       F  0.94576887  0.61911618  0.37583655    -0.20340
H2280       H  0.92578749  0.64063808  0.42153817     0.17430
H2281       H  0.02736562  0.62034682  0.42493431     0.17440
F2282       F  0.00729322  0.64141403  0.47046893    -0.20320
C2283       C  0.93806164  0.56571811  0.62432595    -0.21760
C2284       C  0.92386655  0.56435245  0.59865754    -0.09800
C2285       C  0.91179119  0.53936529  0.58987079     0.29060
C2286       C  0.91621169  0.51527635  0.60532126    -0.21760
C2287       C  0.93342467  0.51581148  0.62901245    -0.09810
C2288       C  0.94319012  0.54121465  0.63947984     0.29060
F2289       F  0.95985841  0.54187527  0.66241125    -0.20340
H2290       H  0.94757914  0.58509795  0.63104442     0.17430
H2291       H  0.90830023  0.49569871  0.59733744     0.17440
F2292       F  0.89793840  0.53781073  0.56515221    -0.20320
C2293       C  0.84035751  0.64356534  0.60096116    -0.21760
C2294       C  0.85824516  0.63315353  0.58032692    -0.09800
C2295       C  0.85811797  0.60393590  0.57578551     0.29060
C2296       C  0.84311146  0.58546595  0.59319017    -0.21760
C2297       C  0.82602558  0.59579256  0.61450995    -0.09810
C2298       C  0.82391086  0.62521602  0.61723087     0.29060
F2299       F  0.80670245  0.63641101  0.63650365    -0.20340
H2300       H  0.83928623  0.66586278  0.60473141     0.17430
H2301       H  0.84499954  0.56311722  0.59005905     0.17440
F2302       F  0.87366202  0.59296102  0.55514494    -0.20320
C2303       C  0.97827550  0.50120193  0.75537281    -0.21760
C2304       C  0.95336303  0.51377153  0.76499238    -0.09800
C2305       C  0.92779782  0.50133894  0.75705672     0.29060
C2306       C  0.92727886  0.47734930  0.74021877    -0.21760
C2307       C  0.95208332  0.46458017  0.73073894    -0.09810
C2308       C  0.97772544  0.47700811  0.73846686     0.29060
F2309       F  0.00231261  0.46627929  0.72913278    -0.20340
H2310       H  0.99830587  0.50977862  0.76141992     0.17430
H2311       H  0.90715296  0.46887767  0.73431934     0.17440
F2312       F  0.90300900  0.51226550  0.76563649    -0.20320
C2313       C  0.83023131  0.62069521  0.78271592    -0.21760
C2314       C  0.80683394  0.60407710  0.77706226    -0.09800
C2315       C  0.78700512  0.59904641  0.79798032     0.29060
C2316       C  0.78913350  0.61299760  0.82332434    -0.21760
C2317       C  0.80978200  0.63349426  0.82694976    -0.09810
C2318       C  0.83110170  0.63643037  0.80705151     0.29060
F2319       F  0.85191927  0.65535182  0.81052018    -0.20340
H2320       H  0.84619739  0.62392988  0.76699988     0.17430
H2321       H  0.77303208  0.60979436  0.83892499     0.17440
F2322       F  0.76452679  0.58250240  0.79303825    -0.20320
C2323       C  0.86238864  0.62364335  0.87377435    -0.21760
C2324       C  0.87292156  0.64488515  0.89125062    -0.09800
C2325       C  0.90061010  0.65384036  0.88601524     0.29060
C2326       C  0.91736766  0.64010181  0.86542844    -0.21760
C2327       C  0.90628593  0.61837843  0.84870920    -0.09810
C2328       C  0.87795829  0.61182510  0.85234097     0.29060
F2329       F  0.86594742  0.59124704  0.83695305    -0.20340
H2330       H  0.84149053  0.61552986  0.87650409     0.17430
H2331       H  0.93929264  0.64533000  0.86363742     0.17440
F2332       F  0.91184869  0.67470666  0.90144323    -0.20320
C2333       C  0.64466121  0.60106725  0.71539602    -0.21760
C2334       C  0.64458139  0.60601755  0.74429317    -0.09800
C2335       C  0.66684161  0.59563858  0.76057692     0.29060
C2336       C  0.69029201  0.58374288  0.74776043    -0.21760
C2337       C  0.69194282  0.58202092  0.71857289    -0.09810
C2338       C  0.66832278  0.58927822  0.70253066     0.29060
F2339       F  0.66963613  0.58858737  0.67421320    -0.20340
H2340       H  0.62796765  0.60932103  0.70243730     0.17430
H2341       H  0.70848069  0.57890972  0.76041811     0.17440
F2342       F  0.66729669  0.59998040  0.78860599    -0.20320
C2343       C  0.69136402  0.65587987  0.83360548    -0.21760
C2344       C  0.66778222  0.66592756  0.84741964    -0.09800
C2345       C  0.66931984  0.67436606  0.87547779     0.29060
C2346       C  0.69544258  0.67613897  0.88834662    -0.21760
C2347       C  0.71942019  0.66957379  0.87290528    -0.09810
C2348       C  0.71714455  0.65783188  0.84617315     0.29060
F2349       F  0.74012849  0.65094563  0.83104905    -0.20340
H2350       H  0.69014049  0.64890594  0.81210208     0.17430
H2351       H  0.69715020  0.68502594  0.90906700     0.17440
F2352       F  0.64629462  0.68389951  0.88909922    -0.20320
C2353       C  0.63213447  0.60448187  0.88259775    -0.21760
C2354       C  0.64330700  0.57894056  0.87299528    -0.09800
C2355       C  0.63215507  0.56846636  0.84767442     0.29060
C2356       C  0.61090413  0.58314727  0.83289570    -0.21760
C2357       C  0.59856748  0.60777341  0.84364801    -0.09810
C2358       C  0.60899766  0.61738892  0.86956646     0.29060
F2359       F  0.59736121  0.63992777  0.88229734    -0.20340
H2360       H  0.64017745  0.61383015  0.90151241     0.17430
H2361       H  0.60399914  0.57507402  0.81295366     0.17440
F2362       F  0.64178394  0.54400666  0.83700609    -0.20320
C2363       C  0.73542285  0.81046785  0.88254388    -0.21760
C2364       C  0.75276740  0.83191360  0.87274405    -0.09800
C2365       C  0.78157911  0.83074260  0.87839358     0.29060
C2366       C  0.79317799  0.80707272  0.89147621    -0.21760
C2367       C  0.77618287  0.78417339  0.89845464    -0.09810
C2368       C  0.74697425  0.78675384  0.89532822     0.29060
F2369       F  0.72996270  0.76494497  0.90169911    -0.20340
H2370       H  0.71319116  0.81099666  0.87812211     0.17430
H2371       H  0.81571313  0.80531528  0.89308586     0.17440
F2372       F  0.79877055  0.85114838  0.86875785    -0.20320
C2373       C  0.61070362  0.78237924  0.78824353    -0.21760
C2374       C  0.61976144  0.76130186  0.80643151    -0.09800
C2375       C  0.64089045  0.76641986  0.82595032     0.29060
C2376       C  0.65531537  0.79138455  0.82483495    -0.21760
C2377       C  0.64789130  0.81186102  0.80515685    -0.09810
C2378       C  0.62408672  0.80815660  0.78831732     0.29060
F2379       F  0.61468603  0.82859319  0.77097188    -0.20340
H2380       H  0.59405265  0.77850197  0.77341871     0.17430
H2381       H  0.67288746  0.79437062  0.83880004     0.17440
F2382       F  0.64947896  0.74623606  0.84410087    -0.20320
C2383       C  0.64538262  0.84829860  0.87086664    -0.21760
C2384       C  0.65850679  0.87287115  0.88048514    -0.09800
C2385       C  0.66051279  0.87614537  0.90969241     0.29060
C2386       C  0.64715888  0.85659929  0.92793336    -0.21760
C2387       C  0.63268490  0.83295858  0.91743593    -0.09810
C2388       C  0.63363438  0.82847978  0.88863813     0.29060
F2389       F  0.61906616  0.80701129  0.87721013    -0.20340
H2390       H  0.64248891  0.84488526  0.84895075     0.17430
H2391       H  0.64606742  0.86117492  0.95001767     0.17440
F2392       F  0.67307509  0.89907677  0.92048250    -0.20320
C2393       C  0.48173649  0.72979851  0.98323085    -0.21760
C2394       C  0.47047452  0.72153325  0.95727548    -0.09800
C2395       C  0.48394503  0.73125003  0.93284652     0.29060
C2396       C  0.50770427  0.74832608  0.93437544    -0.21760
C2397       C  0.51917994  0.75654571  0.96018215    -0.09810
C2398       C  0.50565645  0.74713524  0.98473827     0.29060
F2399       F  0.51521786  0.75495346  0.01022384    -0.20340
H2400       H  0.47237649  0.72233241  0.00246131     0.17430
H2401       H  0.51701877  0.75541575  0.91497863     0.17440
F2402       F  0.47436560  0.72407978  0.90715365    -0.20320
C2403       C  0.54988868  0.62704244  0.96612435    -0.21760
C2404       C  0.52974971  0.62861521  0.94508213    -0.09800
C2405       C  0.53459864  0.61591752  0.91906101     0.29060
C2406       C  0.55715937  0.59780936  0.91588011    -0.21760
C2407       C  0.57566707  0.59401309  0.93804568    -0.09810
C2408       C  0.57341053  0.61036360  0.96224753     0.29060
F2409       F  0.59247426  0.60801821  0.98315683    -0.20340
H2410       H  0.54616482  0.63659978  0.98629302     0.17430
H2411       H  0.55939792  0.58578624  0.89684903     0.17440
F2412       F  0.51555406  0.61806176  0.89814855    -0.20320
C2413       C  0.36568469  0.58711368  0.87416778    -0.21760
C2414       C  0.33723957  0.58470606  0.88045718    -0.09800
C2415       C  0.32653579  0.60222073  0.90184177     0.29060
C2416       C  0.34406132  0.62198666  0.91567541    -0.21760
C2417       C  0.37214136  0.62587704  0.90723589    -0.09810
C2418       C  0.38222948  0.60788977  0.88578272     0.29060
F2419       F  0.40839411  0.61030756  0.87497538    -0.20340
H2420       H  0.37463807  0.57466739  0.85747079     0.17430
H2421       H  0.33549106  0.63464203  0.93234186     0.17440
F2422       F  0.29894388  0.60134584  0.90829481    -0.20320
C2423       C  0.69342194  0.66260686  0.60455921    -0.21760
C2424       C  0.70762956  0.68766932  0.59923147    -0.09800
C2425       C  0.73632731  0.68937699  0.60474817     0.29060
C2426       C  0.74961933  0.66794683  0.61937628    -0.21760
C2427       C  0.73470631  0.64408538  0.62767430    -0.09810
C2428       C  0.70702501  0.64060569  0.61839206     0.29060
F2429       F  0.69208885  0.61767273  0.62583057    -0.20340
H2430       H  0.67108446  0.66131046  0.60099563     0.17430
H2431       H  0.77092135  0.67116593  0.62615148     0.17440
F2432       F  0.75034369  0.71359386  0.59996272    -0.20320
C2433       C  0.59699933  0.74272539  0.67499828    -0.21760
C2434       C  0.60881395  0.72739618  0.65287869    -0.09800
C2435       C  0.60518454  0.69821900  0.65246799     0.29060
C2436       C  0.59330762  0.68450797  0.67562859    -0.21760
C2437       C  0.58455841  0.69971818  0.69918960    -0.09810
C2438       C  0.58493312  0.72906397  0.69792298     0.29060
F2439       F  0.57748743  0.74434313  0.72063154    -0.20340
H2440       H  0.59966416  0.76520408  0.67586754     0.17430
H2441       H  0.59405383  0.66187151  0.67654026     0.17440
F2442       F  0.61671043  0.68268244  0.63172956    -0.20320
C2443       C  0.68807467  0.86576297  0.67228816    -0.21760
C2444       C  0.67345308  0.84033367  0.67360467    -0.09800
C2445       C  0.65900583  0.83271316  0.69770079     0.29060
C2446       C  0.66017916  0.84977953  0.72080271    -0.21760
C2447       C  0.67762280  0.87321745  0.72093378    -0.09810
C2448       C  0.69080157  0.88199291  0.69635237     0.29060
F2449       F  0.70862582  0.90402053  0.69654086    -0.20340
H2450       H  0.69963531  0.87144478  0.65364361     0.17430
H2451       H  0.65086876  0.84237681  0.73993470     0.17440
F2452       F  0.64594885  0.80758666  0.69971234    -0.20320
C2453       C  0.61104268  0.81873578  0.63487009    -0.21760
C2454       C  0.60909409  0.82304624  0.60569020    -0.09800
C2455       C  0.58802937  0.84111927  0.59608689     0.29060
C2456       C  0.57209682  0.85700656  0.61526362    -0.21760
C2457       C  0.57649930  0.85495809  0.64439324    -0.09810
C2458       C  0.59555615  0.83494723  0.65399796     0.29060
F2459       F  0.59895224  0.83106311  0.68185136    -0.20340
H2460       H  0.62511180  0.80312746  0.64299399     0.17430
H2461       H  0.55715713  0.87197015  0.60729443     0.17440
F2462       F  0.58311279  0.84371343  0.56826964    -0.20320
C2463       C  0.62095614  0.96058544  0.54356066    -0.21760
C2464       C  0.62917083  0.93607928  0.52997550    -0.09800
C2465       C  0.62566736  0.91005748  0.54312565     0.29060
C2466       C  0.61157821  0.90865554  0.56866391    -0.21760
C2467       C  0.59993140  0.93293114  0.58011888    -0.09810
C2468       C  0.60607549  0.95903663  0.56835569     0.29060
F2469       F  0.59577234  0.98288450  0.57961514    -0.20340
H2470       H  0.62321534  0.98065409  0.53339628     0.17430
H2471       H  0.60770189  0.88878716  0.57803074     0.17440
F2472       F  0.63232752  0.88598227  0.52965603    -0.20320
C2473       C  0.62463562  0.85268388  0.35573892    -0.21760
C2474       C  0.60325859  0.86363583  0.33842253    -0.09800
C2475       C  0.60316493  0.89284197  0.33399538     0.29060
C2476       C  0.62247401  0.91017569  0.34861594    -0.21760
C2477       C  0.64308819  0.89850870  0.36656814    -0.09810
C2478       C  0.64458333  0.86934717  0.36847073     0.29060
F2479       F  0.66339439  0.85691604  0.38586704    -0.20340
H2480       H  0.62585737  0.83063886  0.36041335     0.17430
H2481       H  0.62007952  0.93266591  0.34742185     0.17440
F2482       F  0.58361243  0.90471532  0.31717344    -0.20320
C2483       C  0.74496057  0.96581338  0.51575334    -0.21760
C2484       C  0.76139198  0.94172883  0.52041849    -0.09800
C2485       C  0.75898498  0.91952514  0.50099486     0.29060
C2486       C  0.74062015  0.92128345  0.47826555    -0.21760
C2487       C  0.72420013  0.94517672  0.47361868    -0.09810
C2488       C  0.72645841  0.96750441  0.49275851     0.29060
F2489       F  0.70984706  0.99042427  0.49002926    -0.20340
H2490       H  0.74641278  0.98336740  0.52990657     0.17430
H2491       H  0.73906576  0.90360507  0.46425315     0.17440
F2492       F  0.77470438  0.89594925  0.50347782    -0.20320
C2493       C  0.82340972  0.87451287  0.74231069    -0.21760
C2494       C  0.84464083  0.86647142  0.76080703    -0.09800
C2495       C  0.84275460  0.87445129  0.78899034     0.29060
C2496       C  0.81825120  0.88714502  0.79913528    -0.21760
C2497       C  0.79546391  0.89182221  0.78118507    -0.09810
C2498       C  0.79915544  0.88741514  0.75225926     0.29060
F2499       F  0.77776683  0.89204616  0.73411953    -0.20340
H2500       H  0.82434106  0.86824806  0.72058034     0.17430
H2501       H  0.81592463  0.89015855  0.82144225     0.17440
F2502       F  0.86338246  0.86751914  0.80716523    -0.20320
C2503       C  0.90754019  0.74622686  0.81385306    -0.21760
C2504       C  0.90312041  0.77494777  0.80900809    -0.09800
C2505       C  0.88761465  0.79038224  0.82857830     0.29060
C2506       C  0.87301440  0.77655234  0.84981066    -0.21760
C2507       C  0.87452209  0.74737712  0.85223346    -0.09810
C2508       C  0.89324394  0.73242950  0.83536197     0.29060
F2509       F  0.89492262  0.70414894  0.83735951    -0.20340
H2510       H  0.91890343  0.73384911  0.79866138     0.17430
H2511       H  0.85851017  0.78828887  0.86267457     0.17440
F2512       F  0.88243583  0.81792534  0.82414557    -0.20320
C2513       C  0.88372796  0.69009438  0.68357883    -0.21760
C2514       C  0.88070282  0.70443594  0.70894366    -0.09800
C2515       C  0.86541293  0.69240172  0.73084030     0.29060
C2516       C  0.84829350  0.66993225  0.72537317    -0.21760
C2517       C  0.84815210  0.65774363  0.69885617    -0.09810
C2518       C  0.86775783  0.66618720  0.67871247     0.29060
F2519       F  0.86947419  0.65322607  0.65364760    -0.20340
H2520       H  0.89586210  0.69898625  0.66662958     0.17430
H2521       H  0.83386153  0.66316426  0.74142165     0.17440
F2522       F  0.86373604  0.70498673  0.75620895    -0.20320
C2523       C  0.78763253  0.78548844  0.62321066    -0.21760
C2524       C  0.76289309  0.79178140  0.63749094    -0.09800
C2525       C  0.76357006  0.79880945  0.66582834     0.29060
C2526       C  0.78872352  0.79887869  0.68010098    -0.21760
C2527       C  0.81363803  0.79160447  0.66642049    -0.09810
C2528       C  0.81310457  0.78553291  0.63758432     0.29060
F2529       F  0.83691019  0.77914458  0.62348079    -0.20340
H2530       H  0.78709612  0.77973151  0.60135554     0.17430
H2531       H  0.78844153  0.80365287  0.70221593     0.17440
F2532       F  0.73960328  0.80421578  0.68009143    -0.20320
C2533       C  0.85437939  0.89932761  0.65100135    -0.21760
C2534       C  0.85392281  0.89291792  0.62224256    -0.09800
C2535       C  0.87459531  0.87369090  0.61248343     0.29060
C2536       C  0.89423703  0.86172869  0.63028318    -0.21760
C2537       C  0.89322499  0.86592177  0.65907027    -0.09810
C2538       C  0.87334561  0.88539617  0.66937200     0.29060
F2539       F  0.87110046  0.88966141  0.69726348    -0.20340
H2540       H  0.83959397  0.91430665  0.65937513     0.17430
H2541       H  0.90853845  0.84631814  0.62171540     0.17440
F2542       F  0.87573187  0.86507496  0.58549919    -0.20320
C2543       C  0.99612979  0.71868377  0.73136649    -0.21760
C2544       C  0.00925410  0.70972466  0.70652597    -0.09800
C2545       C  0.00469740  0.72603952  0.68217154     0.29060
C2546       C  0.98741608  0.74996133  0.68272455    -0.21760
C2547       C  0.97445578  0.75897297  0.70753574    -0.09810
C2548       C  0.97896778  0.74281702  0.73191720     0.29060
F2549       F  0.96586652  0.74963602  0.75613462    -0.20340
H2550       H  0.99931506  0.70708352  0.75058639     0.17430
H2551       H  0.98407761  0.76150333  0.66348720     0.17440
F2552       F  0.01727509  0.71926775  0.65766667    -0.20320
C2553       C  0.15459019  0.59228074  0.75504679    -0.21760
C2554       C  0.13977592  0.61182689  0.77113747    -0.09800
C2555       C  0.14624475  0.61455810  0.79959854     0.29060
C2556       C  0.16827182  0.59922685  0.81128469    -0.21760
C2557       C  0.18520532  0.58219378  0.79447270    -0.09810
C2558       C  0.17743139  0.57780612  0.76650119     0.29060
F2559       F  0.19408301  0.56242250  0.74942182    -0.20340
H2560       H  0.15050288  0.59046728  0.73292946     0.17430
H2561       H  0.17456168  0.60383399  0.83247366     0.17440
F2562       F  0.13310732  0.63402331  0.81544554    -0.20320
C2563       C  0.03830758  0.61950299  0.54446176    -0.21760
C2564       C  0.01586035  0.60846042  0.55948292    -0.09800
C2565       C  0.01923698  0.58420340  0.57558811     0.29060
C2566       C  0.04412936  0.56931047  0.57407851    -0.21760
C2567       C  0.06599578  0.57898170  0.55708492    -0.09810
C2568       C  0.06370755  0.60532336  0.54398608     0.29060
F2569       F  0.08526076  0.61667686  0.52945749    -0.20340
H2570       H  0.03573537  0.63823540  0.53195598     0.17430
H2571       H  0.04584932  0.54964310  0.58527281     0.17440
F2572       F  0.99747683  0.57332563  0.59023089    -0.20320
C2573       C  0.14216867  0.41248120  0.54860959    -0.21760
C2574       C  0.15098008  0.43423282  0.53088651    -0.09800
C2575       C  0.15047313  0.42986948  0.50176657     0.29060
C2576       C  0.13776692  0.40602964  0.49070580    -0.21760
C2577       C  0.12571588  0.38603394  0.50843865    -0.09810
C2578       C  0.12933158  0.38860322  0.53747197     0.29060
F2579       F  0.11713105  0.36995968  0.55508401    -0.20340
H2580       H  0.14175566  0.41557003  0.57102396     0.17430
H2581       H  0.13469466  0.40469244  0.46831239     0.17440
F2582       F  0.15879347  0.45043641  0.48399282    -0.20320
C2583       C  0.13610100  0.53525244  0.44503162    -0.21760
C2584       C  0.12620498  0.54996761  0.46822931    -0.09800
C2585       C  0.10321139  0.56810421  0.46559137     0.29060
C2586       C  0.08799838  0.56877595  0.44105960    -0.21760
C2587       C  0.09601476  0.55178649  0.41891427    -0.09810
C2588       C  0.12111463  0.53646496  0.42002464     0.29060
F2589       F  0.12922620  0.52031909  0.39817624    -0.20340
H2590       H  0.15357579  0.52090919  0.44706292     0.17430
H2591       H  0.06886835  0.58097976  0.44001913     0.17440
F2592       F  0.09327114  0.58231997  0.48790157    -0.20320
C2593       C  0.05749218  0.47674011  0.65733064    -0.21760
C2594       C  0.05060705  0.44842831  0.65351721    -0.09800
C2595       C  0.06795374  0.43180891  0.63661858     0.29060
C2596       C  0.08920008  0.44407398  0.62077610    -0.21760
C2597       C  0.09409793  0.47285845  0.62243434    -0.09810
C2598       C  0.07933423  0.48889789  0.64205594     0.29060
F2599       F  0.08373775  0.51686509  0.64393346    -0.20340
H2600       H  0.04394767  0.49010107  0.66964176     0.17430
H2601       H  0.10050707  0.43146983  0.60572868     0.17440
F2602       F  0.06142487  0.40474289  0.63180095    -0.20320
C2603       C  0.10568949  0.58710533  0.61884854    -0.21760
C2604       C  0.13010131  0.57311194  0.62813043    -0.09800
C2605       C  0.13345645  0.57023432  0.65728080     0.29060
C2606       C  0.11421573  0.58349761  0.67587359    -0.21760
C2607       C  0.09072773  0.59872500  0.66583168    -0.09810
C2608       C  0.08610141  0.59871331  0.63700038     0.29060
F2609       F  0.06450165  0.61365708  0.62600075    -0.20340
H2610       H  0.10210725  0.59059537  0.59695988     0.17430
H2611       H  0.11878774  0.58372585  0.69796194     0.17440
F2612       F  0.15615294  0.55673194  0.66774066    -0.20320
C2613       C  0.24501050  0.81027514  0.38663249    -0.21760
C2614       C  0.22860035  0.83260829  0.37665537    -0.09800
C2615       C  0.19969052  0.83252685  0.38196485     0.29060
C2616       C  0.18717000  0.80872280  0.39374790    -0.21760
C2617       C  0.20351856  0.78532764  0.40102902    -0.09810
C2618       C  0.23264534  0.78701844  0.39906553     0.29060
F2619       F  0.24881516  0.76455093  0.40557097    -0.20340
H2620       H  0.26719151  0.80949332  0.38263744     0.17430
H2621       H  0.16456192  0.80742607  0.39445956     0.17440
F2622       F  0.18321200  0.85363590  0.37237005    -0.20320
C2623       C  0.44965130  0.84168312  0.57325430    -0.21760
C2624       C  0.46552596  0.83649268  0.54909293    -0.09800
C2625       C  0.49411856  0.84288611  0.54917977     0.29060
C2626       C  0.50567959  0.85777260  0.57129927    -0.21760
C2627       C  0.48914180  0.86585933  0.59415790    -0.09810
C2628       C  0.46146852  0.85604001  0.59591807     0.29060
F2629       F  0.44490470  0.86329708  0.61777412    -0.20340
H2630       H  0.42738662  0.83755369  0.57328550     0.17430
H2631       H  0.52702903  0.86495764  0.56937791     0.17440
F2632       F  0.50984582  0.83841557  0.52600657    -0.20320
C2633       C  0.54109186  0.85125441  0.46050949    -0.21760
C2634       C  0.52286561  0.85409323  0.43775929    -0.09800
C2635       C  0.53134139  0.86914446  0.41400644     0.29060
C2636       C  0.55531102  0.88553945  0.41532591    -0.21760
C2637       C  0.57138365  0.88577551  0.43978962    -0.09810
C2638       C  0.56544050  0.86695702  0.46154931     0.29060
F2639       F  0.58120817  0.86622331  0.48514771    -0.20340
H2640       H  0.53501775  0.83916370  0.47867320     0.17430
H2641       H  0.56044245  0.89921453  0.39796545     0.17440
F2642       F  0.51476641  0.87083906  0.39104960    -0.20320
C2643       C  0.33982115  0.83300941  0.39836750    -0.21760
C2644       C  0.36049265  0.84342070  0.41618865    -0.09800
C2645       C  0.36245331  0.87284468  0.41883332     0.29060
C2646       C  0.34580847  0.89121364  0.40282046    -0.21760
C2647       C  0.32580464  0.88080904  0.38441313    -0.09810
C2648       C  0.32219217  0.85147813  0.38342283     0.29060
F2649       F  0.30198726  0.84055855  0.36723534    -0.20340
H2650       H  0.33729063  0.81064718  0.39596948     0.17430
H2651       H  0.34894135  0.91357089  0.40450073     0.17440
F2652       F  0.38156843  0.88417368  0.43592311    -0.20320
C2653       C  0.24827121  0.28014897  0.37786591    -0.21760
C2654       C  0.27254595  0.28392690  0.39369208    -0.09800
C2655       C  0.28197663  0.31124250  0.39900067     0.29060
C2656       C  0.26836272  0.33424604  0.38634831    -0.21760
C2657       C  0.24603394  0.32976811  0.36775026    -0.09810
C2658       C  0.23582540  0.30255263  0.36422640     0.29060
F2659       F  0.21596144  0.29705656  0.34489600    -0.20340
H2660       H  0.24100201  0.25923412  0.37312272     0.17430
H2661       H  0.27691490  0.35503276  0.38883999     0.17440
F2662       F  0.30589667  0.31538060  0.41363789    -0.20320
C2663       C  0.20174796  0.18398307  0.38255534    -0.21760
C2664       C  0.22491760  0.17446307  0.36743166    -0.09800
C2665       C  0.22154453  0.15999690  0.34234858     0.29060
C2666       C  0.19511005  0.15731195  0.33101311    -0.21760
C2667       C  0.17208375  0.16896272  0.34477504    -0.09810
C2668       C  0.17506210  0.18102449  0.37126969     0.29060
F2669       F  0.15276001  0.19246815  0.38463288    -0.20340
H2670       H  0.20450131  0.19489698  0.40216205     0.17430
H2671       H  0.19283523  0.14810144  0.31047160     0.17440
F2672       F  0.24402363  0.15057641  0.32777592    -0.20320
C2673       C  0.57266758  0.98237808  0.35536850    -0.21760
C2674       C  0.59080513  0.99891827  0.37115976    -0.09800
C2675       C  0.58799441  0.02815641  0.37032252     0.29060
C2676       C  0.56534184  0.04047545  0.35634554    -0.21760
C2677       C  0.54498294  0.02362996  0.34378220    -0.09810
C2678       C  0.55001360  0.99466930  0.34145753     0.29060
F2679       F  0.53070359  0.97787798  0.32930935    -0.20340
H2680       H  0.57442108  0.95978768  0.35605081     0.17430
H2681       H  0.56163447  0.06268830  0.35885421     0.17440
F2682       F  0.60514594  0.04449087  0.38580688    -0.20320
C2683       C  0.42356011  0.93652203  0.35469924    -0.21760
C2684       C  0.44823515  0.95213348  0.35670617    -0.09800
C2685       C  0.47133544  0.94098473  0.37105675     0.29060
C2686       C  0.46753043  0.91847980  0.38881170    -0.21760
C2687       C  0.44149585  0.90541196  0.39041446    -0.09810
C2688       C  0.42040993  0.91256003  0.37122198     0.29060
F2689       F  0.39600391  0.89831846  0.37048804    -0.20340
H2690       H  0.40570336  0.94464803  0.34330703     0.17430
H2691       H  0.48439854  0.91247563  0.40270499     0.17440
F2692       F  0.49590286  0.95511409  0.37217944    -0.20320
C2693       C  0.37942080  0.10284986  0.38531603    -0.21760
C2694       C  0.39910284  0.11229514  0.36532366    -0.09800
C2695       C  0.40718377  0.14059928  0.36687349     0.29060
C2696       C  0.39449502  0.15882349  0.38666466    -0.21760
C2697       C  0.37445442  0.14899042  0.40622068    -0.09810
C2698       C  0.36817176  0.12031891  0.40577523     0.29060
F2699       F  0.34954666  0.10919399  0.42410522    -0.20340
H2700       H  0.37267541  0.08127158  0.38569414     0.17430
H2701       H  0.39976665  0.18081928  0.38613850     0.17440
F2702       F  0.42674438  0.15080466  0.34905380    -0.20320
C2703       C  0.29509741  0.99588855  0.28480466    -0.21760
C2704       C  0.28110219  0.97079396  0.28019694    -0.09800
C2705       C  0.27009916  0.96578664  0.25318812     0.29060
C2706       C  0.27365181  0.98523607  0.23119433    -0.21760
C2707       C  0.28905337  0.00978342  0.23538459    -0.09810
C2708       C  0.29902836  0.01512114  0.26293657     0.29060
F2709       F  0.31331353  0.03882519  0.26895278    -0.20340
H2710       H  0.30455800  0.99988889  0.30496175     0.17430
H2711       H  0.26539724  0.98051898  0.21068413     0.17440
F2712       F  0.25729744  0.94112829  0.24767516    -0.20320
C2713       C  0.19400821  0.08550217  0.25046986    -0.21760
C2714       C  0.19814353  0.08548350  0.22152689    -0.09800
C2715       C  0.17616593  0.09361450  0.20373977     0.29060
C2716       C  0.15149691  0.10468915  0.21492795    -0.21760
C2717       C  0.14886967  0.10797272  0.24387581    -0.09810
C2718       C  0.16938835  0.09655730  0.26165714     0.29060
F2719       F  0.16704559  0.09923886  0.28980153    -0.20340
H2720       H  0.21095542  0.07975414  0.26440164     0.17430
H2721       H  0.13612495  0.11384619  0.20096753     0.17440
F2722       F  0.18007859  0.09445944  0.17567829    -0.20320
C2723       C  0.33923953  0.12003554  0.28896939    -0.21760
C2724       C  0.31435168  0.10653976  0.28156991    -0.09800
C2725       C  0.29405990  0.10094010  0.30199693     0.29060
C2726       C  0.29742102  0.11150624  0.32887079    -0.21760
C2727       C  0.32038931  0.12852589  0.33497193    -0.09810
C2728       C  0.34200181  0.13157364  0.31547525     0.29060
F2729       F  0.36387556  0.14871193  0.32080039    -0.20340
H2730       H  0.35503840  0.12449587  0.27334313     0.17430
H2731       H  0.28045578  0.10939541  0.34375517     0.17440
F2732       F  0.27004202  0.08744019  0.29531009    -0.20320
C2733       C  0.32665070  0.12200089  0.12379496    -0.21760
C2734       C  0.33253850  0.09297347  0.12277923    -0.09800
C2735       C  0.35352667  0.08406643  0.10459780     0.29060
C2736       C  0.36919581  0.10372287  0.08931653    -0.21760
C2737       C  0.36567227  0.13286218  0.09266598    -0.09810
C2738       C  0.34321760  0.14176708  0.10926360     0.29060
F2739       F  0.33713344  0.16940743  0.11109497    -0.20340
H2740       H  0.30990723  0.12950677  0.13689004     0.17430
H2741       H  0.38449887  0.09587244  0.07501699     0.17440
F2742       F  0.35885985  0.05634493  0.10154595    -0.20320
C2743       C  0.55295608  0.47817513  0.84316036    -0.21760
C2744       C  0.55055839  0.44926256  0.84742869    -0.09800
C2745       C  0.57303360  0.43458211  0.85957144     0.29060
C2746       C  0.59630169  0.44906325  0.86975414    -0.21760
C2747       C  0.59692491  0.47838703  0.86879352    -0.09810
C2748       C  0.57585666  0.49274566  0.85399377     0.29060
F2749       F  0.57586821  0.52111915  0.85280780    -0.20340
H2750       H  0.53553784  0.48990558  0.83453459     0.17430
H2751       H  0.61198848  0.43766566  0.88154460     0.17440
F2752       F  0.57076444  0.40678376  0.86495771    -0.20320
C2753       C  0.42271912  0.52471380  0.88866105    -0.21760
C2754       C  0.44679164  0.51636652  0.87415067    -0.09800
C2755       C  0.47019590  0.53396079  0.87307129     0.29060
C2756       C  0.47021969  0.55864965  0.88833815    -0.21760
C2757       C  0.44731833  0.56526753  0.90535693    -0.09810
C2758       C  0.42317741  0.54875558  0.90477842     0.29060
F2759       F  0.40063374  0.55513894  0.92083238    -0.20340
H2760       H  0.40461039  0.51118962  0.88991178     0.17430
H2761       H  0.48887275  0.57141143  0.88854951     0.17440
F2762       F  0.49366492  0.52620613  0.85906741    -0.20320
C2763       C  0.39493441  0.33371385  0.84932117    -0.21760
C2764       C  0.40938932  0.35657230  0.86007038    -0.09800
C2765       C  0.40971919  0.35975222  0.88946057     0.29060
C2766       C  0.39355194  0.34269462  0.90724388    -0.21760
C2767       C  0.37820920  0.32044621  0.89641480    -0.09810
C2768       C  0.38017871  0.31558725  0.86729752     0.29060
F2769       F  0.36656349  0.29400104  0.85581105    -0.20340
H2770       H  0.39499287  0.32990321  0.82703267     0.17430
H2771       H  0.39331929  0.34672357  0.92950230     0.17440
F2772       F  0.42605059  0.37920863  0.90129786    -0.20320
C2773       C  0.40836216  0.24156491  0.30953009    -0.21760
C2774       C  0.40785594  0.27081286  0.30640771    -0.09800
C2775       C  0.39769658  0.28708576  0.32866735     0.29060
C2776       C  0.38349159  0.27418141  0.35096503    -0.21760
C2777       C  0.37957072  0.24504824  0.35113484    -0.09810
C2778       C  0.39386619  0.22873645  0.33136205     0.29060
F2779       F  0.39115124  0.20049913  0.33130101    -0.20340
H2780       H  0.41631298  0.22856016  0.29277888     0.17430
H2781       H  0.37287079  0.28714004  0.36619283     0.17440
F2782       F  0.39765998  0.31539142  0.32677375    -0.20320
C2783       C  0.37982210  0.15783615  0.19729138    -0.21760
C2784       C  0.35296991  0.15850390  0.18540983    -0.09800
C2785       C  0.34261067  0.18288029  0.17314359     0.29060
C2786       C  0.35796973  0.20710853  0.17480650    -0.21760
C2787       C  0.38288086  0.20756145  0.19014524    -0.09810
C2788       C  0.39476733  0.18271612  0.20012067     0.29060
F2789       F  0.41872693  0.18310589  0.21530000    -0.20340
H2790       H  0.38770199  0.13888645  0.20700736     0.17430
H2791       H  0.34849221  0.22630995  0.16743249     0.17440
F2792       F  0.31637834  0.18395206  0.16234904    -0.20320
C2793       C  0.32784266  0.37694787  0.24682113    -0.21760
C2794       C  0.34271509  0.35911021  0.26485476    -0.09800
C2795       C  0.33479730  0.35739212  0.29307314     0.29060
C2796       C  0.31127030  0.37190965  0.30266647    -0.21760
C2797       C  0.29454153  0.38723835  0.28397246    -0.09810
C2798       C  0.30355792  0.39054552  0.25616247     0.29060
F2799       F  0.28748119  0.40475446  0.23750708    -0.20340
H2800       H  0.33346533  0.37819969  0.22490799     0.17430
H2801       H  0.30426300  0.36838122  0.32393631     0.17440
F2802       F  0.34844895  0.33988732  0.31081608    -0.20320
C2803       C  0.34818592  0.56623483  0.04848931    -0.21760
C2804       C  0.34434733  0.54104283  0.03418459    -0.09800
C2805       C  0.34933095  0.54017143  0.00523337     0.29060
C2806       C  0.36340983  0.56209682  0.99211684    -0.21760
C2807       C  0.37083332  0.58578823  0.00741556    -0.09810
C2808       C  0.36083912  0.58888334  0.03486139     0.29060
F2809       F  0.36546422  0.61279656  0.04916099    -0.20340
H2810       H  0.34418686  0.56741553  0.07074196     0.17430
H2811       H  0.37019770  0.55977762  0.97064126     0.17440
F2812       F  0.34358041  0.51666710  0.99053954    -0.20320
C2813       C  0.35824512  0.42643961  0.95677515    -0.21760
C2814       C  0.36540121  0.44836753  0.97476736    -0.09800
C2815       C  0.38459502  0.46880422  0.96595678     0.29060
C2816       C  0.39952936  0.46495921  0.94163835    -0.21760
C2817       C  0.39532226  0.44103749  0.92559761    -0.09810
C2818       C  0.37310614  0.42287558  0.93187049     0.29060
F2819       F  0.36743720  0.40057578  0.91541975    -0.20340
H2820       H  0.34331904  0.41067666  0.96320846     0.17430
H2821       H  0.41571327  0.47987446  0.93626462     0.17440
F2822       F  0.39158735  0.49066938  0.98254740    -0.20320
C2823       C  0.35938806  0.35334463  0.14695085    -0.21760
C2824       C  0.38144736  0.36445492  0.16323962    -0.09800
C2825       C  0.38179401  0.39373761  0.16669651     0.29060
C2826       C  0.36221827  0.41093846  0.15198333    -0.21760
C2827       C  0.34153658  0.39922482  0.13433060    -0.09810
C2828       C  0.33972164  0.37007127  0.13339103     0.29060
F2829       F  0.32048049  0.35758061  0.11672848    -0.20340
H2830       H  0.35751421  0.33111907  0.14363901     0.17430
H2831       H  0.36436603  0.43342186  0.15283962     0.17440
F2832       F  0.40173830  0.40575351  0.18277090    -0.20320
C2833       C  0.06465656  0.48988713  0.22653635    -0.21760
C2834       C  0.04487368  0.46803714  0.22470937    -0.09800
C2835       C  0.02133365  0.46942155  0.24241767     0.29060
C2836       C  0.01821801  0.49175980  0.26155275    -0.21760
C2837       C  0.03814223  0.51345378  0.26311677    -0.09810
C2838       C  0.06147843  0.51201802  0.24542512     0.29060
F2839       F  0.08204681  0.53142512  0.24738916    -0.20340
H2840       H  0.08303349  0.48982825  0.21328563     0.17430
H2841       H  0.00074403  0.49155835  0.27597389     0.17440
F2842       F  0.00129587  0.44944405  0.24115263    -0.20320
C2843       C  0.25595673  0.27109262  0.02718692    -0.21760
C2844       C  0.22707778  0.27234826  0.02055542    -0.09800
C2845       C  0.21943325  0.27185661  0.99229268     0.29060
C2846       C  0.24019964  0.27213837  0.97139468    -0.21760
C2847       C  0.26907850  0.27242180  0.97805568    -0.09810
C2848       C  0.27671512  0.27089547  0.00627891     0.29060
F2849       F  0.30408482  0.27132644  0.01373620    -0.20340
H2850       H  0.26254194  0.27133421  0.04885322     0.17430
H2851       H  0.23365107  0.27316102  0.94973250     0.17440
F2852       F  0.19208785  0.27321011  0.98482540    -0.20320
C2853       C  0.19982344  0.16202028  0.10722904    -0.21760
C2854       C  0.21389753  0.18732848  0.10255953    -0.09800
C2855       C  0.24261084  0.18888290  0.10823468     0.29060
C2856       C  0.25611015  0.16681890  0.12183154    -0.21760
C2857       C  0.24128463  0.14274063  0.12973888    -0.09810
C2858       C  0.21359506  0.13954046  0.12032390     0.29060
F2859       F  0.19892655  0.11611765  0.12654188    -0.20340
H2860       H  0.17755239  0.16063674  0.10333607     0.17430
H2861       H  0.27761825  0.16954434  0.12821173     0.17440
F2862       F  0.25668007  0.21315617  0.10398629    -0.20320
C2863       C  0.11047366  0.20043209  0.15067351    -0.21760
C2864       C  0.11393032  0.22959409  0.15139589    -0.09800
C2865       C  0.10163663  0.24466498  0.17349335     0.29060
C2866       C  0.08910106  0.23055135  0.19592090    -0.21760
C2867       C  0.08888140  0.20122034  0.19694173    -0.09810
C2868       C  0.09832206  0.18628688  0.17343119     0.29060
F2869       F  0.09936381  0.15792035  0.17419602    -0.20340
H2870       H  0.12010929  0.18832705  0.13414651     0.17430
H2871       H  0.08271499  0.24245538  0.21408041     0.17440
F2872       F  0.10440393  0.27288699  0.17484933    -0.20320
C2873       C  0.19301405  0.38438005  0.19180885    -0.21760
C2874       C  0.17725970  0.37602366  0.21497046    -0.09800
C2875       C  0.15777497  0.35434648  0.21238756     0.29060
C2876       C  0.15703661  0.33829321  0.18849719    -0.21760
C2877       C  0.17520069  0.34438901  0.16668988    -0.09810
C2878       C  0.19156396  0.36875881  0.16722686     0.29060
F2879       F  0.20864532  0.37524863  0.14550909    -0.20340
H2880       H  0.20835864  0.40087971  0.19367934     0.17430
H2881       H  0.14407559  0.31973290  0.18796064     0.17440
F2882       F  0.14258822  0.34595580  0.23457066    -0.20320
C2883       C  0.29174171  0.27620562  0.12402322    -0.21760
C2884       C  0.26981890  0.29266067  0.13412553    -0.09800
C2885       C  0.27364382  0.31006178  0.15721676     0.29060
C2886       C  0.29873792  0.30922878  0.17166127    -0.21760
C2887       C  0.32028587  0.29133685  0.16286692    -0.09810
C2888       C  0.31727128  0.27598124  0.13797626     0.29060
F2889       F  0.33826030  0.25968681  0.12794704    -0.20340
H2890       H  0.28872461  0.26287602  0.10601748     0.17430
H2891       H  0.30095594  0.32186119  0.19028256     0.17440
F2892       F  0.25230888  0.32604350  0.16710831    -0.20320
C2893       C  0.09642994  0.31730823  0.11290649    -0.21760
C2894       C  0.11995812  0.32809028  0.09861250    -0.09800
C2895       C  0.12867381  0.35529030  0.10592610     0.29060
C2896       C  0.11641426  0.36953168  0.12852385    -0.21760
C2897       C  0.09215724  0.35952249  0.14196683    -0.09810
C2898       C  0.08220052  0.33305676  0.13353315     0.29060
F2899       F  0.05888798  0.32212446  0.14543175    -0.20340
H2900       H  0.08906814  0.29644046  0.10828114     0.17430
H2901       H  0.12540616  0.38933041  0.13459179     0.17440
F2902       F  0.15015169  0.36779448  0.09221247    -0.20320
C2903       C  0.79653991  0.38846342  0.24941690    -0.21760
C2904       C  0.79432297  0.38986689  0.22031819    -0.09800
C2905       C  0.81698966  0.38074680  0.20388109     0.29060
C2906       C  0.83999788  0.36735786  0.21644005    -0.21760
C2907       C  0.84020189  0.36247735  0.24538852    -0.09810
C2908       C  0.81900800  0.37457610  0.26187113     0.29060
F2909       F  0.81820185  0.37026408  0.28979778    -0.20340
H2910       H  0.77900942  0.39470270  0.26238155     0.17430
H2911       H  0.85585704  0.35793702  0.20327654     0.17440
F2912       F  0.81503804  0.38115205  0.17559715    -0.20320
C2913       C  0.69384327  0.35822860  0.33089839    -0.21760
C2914       C  0.67181665  0.33929264  0.33508589    -0.09800
C2915       C  0.65134616  0.33592923  0.31448901     0.29060
C2916       C  0.65485157  0.34874366  0.28867667    -0.21760
C2917       C  0.67918977  0.36412490  0.28314880    -0.09810
C2918       C  0.69800213  0.37008132  0.30466110     0.29060
F2919       F  0.72122458  0.38562248  0.29976234    -0.20340
H2920       H  0.70959153  0.36133321  0.34685245     0.17430
H2921       H  0.64000473  0.34428701  0.27218284     0.17440
F2922       F  0.62946951  0.31831317  0.31846236    -0.20320
C2923       C  0.50106568  0.20923182  0.03710140    -0.21760
C2924       C  0.47236779  0.21657715  0.03953196    -0.09800
C2925       C  0.46558464  0.24503956  0.04114019     0.29060
C2926       C  0.48698694  0.26525036  0.04211121    -0.21760
C2927       C  0.51576650  0.25780592  0.04124811    -0.09810
C2928       C  0.52247812  0.22948765  0.03769139     0.29060
F2929       F  0.54960999  0.22114531  0.03676468    -0.20340
H2930       H  0.50702560  0.18738141  0.03588116     0.17430
H2931       H  0.48098349  0.28698186  0.04453731     0.17440
F2932       F  0.43852842  0.25322029  0.04390920    -0.20320
C2933       C  0.45103781  0.36367401  0.03187469    -0.21760
C2934       C  0.46772991  0.36077838  0.05576303    -0.09800
C2935       C  0.45709359  0.36870058  0.08204516     0.29060
C2936       C  0.43216267  0.38361925  0.08351267    -0.21760
C2937       C  0.41717335  0.38924395  0.05909235    -0.09810
C2938       C  0.42559152  0.37759025  0.03355103     0.29060
F2939       F  0.41079541  0.38226614  0.00975138    -0.20340
H2940       H  0.45860764  0.35703506  0.01159442     0.17430
H2941       H  0.42519009  0.39184995  0.10342400     0.17440
F2942       F  0.47183309  0.36439899  0.10591732    -0.20320
C2943       C  0.50160056  0.33557406  0.95199287    -0.21760
C2944       C  0.53070177  0.33267545  0.95135206    -0.09800
C2945       C  0.54529618  0.33972397  0.92685583     0.29060
C2946       C  0.53118071  0.35264589  0.90459153    -0.21760
C2947       C  0.50267915  0.35942809  0.90711521    -0.09810
C2948       C  0.48768501  0.34928800  0.93033548     0.29060
F2949       F  0.46016380  0.35506625  0.93364670    -0.20340
H2950       H  0.49015575  0.33075077  0.97096863     0.17430
H2951       H  0.54316136  0.36028594  0.88694834     0.17440
F2952       F  0.57360700  0.33768558  0.92604473    -0.20320
C2953       C  0.61346281  0.34794182  0.11991528    -0.21760
C2954       C  0.62386133  0.33786899  0.09432927    -0.09800
C2955       C  0.64962437  0.34884815  0.08485333     0.29060
C2956       C  0.66422456  0.36904099  0.10069990    -0.21760
C2957       C  0.65276157  0.38027963  0.12545555    -0.09810
C2958       C  0.62653714  0.36984495  0.13418640     0.29060
F2959       F  0.61308869  0.38082059  0.15662522    -0.20340
H2960       H  0.59385267  0.34021135  0.12814710     0.17430
H2961       H  0.68446831  0.37607802  0.09341831     0.17440
F2962       F  0.66074022  0.34019293  0.06025104    -0.20320
C2963       C  0.62915798  0.38936607  0.96650501    -0.21760
C2964       C  0.62363842  0.39124336  0.99528681    -0.09800
C2965       C  0.63284225  0.41505325  0.00985734     0.29060
C2966       C  0.64442406  0.43772266  0.99538805    -0.21760
C2967       C  0.64691547  0.43714269  0.96620419    -0.09810
C2968       C  0.64044338  0.41230291  0.95196822     0.29060
F2969       F  0.64205554  0.41139571  0.92367177    -0.20340
H2970       H  0.62190562  0.37146195  0.95477753     0.17430
H2971       H  0.64863959  0.45688257  0.00664711     0.17440
F2972       F  0.62802143  0.41753199  0.03771714    -0.20320
C2973       C  0.26124136  0.55595172  0.49570442    -0.21760
C2974       C  0.26143731  0.53396619  0.47604608    -0.09800
C2975       C  0.24347895  0.51111116  0.48104480     0.29060
C2976       C  0.22602033  0.51048058  0.50486272    -0.21760
C2977       C  0.22581746  0.53259843  0.52428426    -0.09810
C2978       C  0.24367219  0.55539522  0.51930094     0.29060
F2979       F  0.24430504  0.57714738  0.53743867    -0.20340
H2980       H  0.27510822  0.57362974  0.49308030     0.17430
H2981       H  0.21179716  0.49308612  0.50757944     0.17440
F2982       F  0.24242012  0.48952507  0.46274895    -0.20320
C2983       C  0.39386403  0.44241541  0.37264266    -0.21760
C2984       C  0.38946418  0.47143800  0.37325062    -0.09800
C2985       C  0.40682129  0.48887530  0.35728395     0.29060
C2986       C  0.42977134  0.47761781  0.34305621    -0.21760
C2987       C  0.43606070  0.44892485  0.34501484    -0.09810
C2988       C  0.41684726  0.43112908  0.35834753     0.29060
F2989       F  0.42267226  0.40350643  0.36138017    -0.20340
H2990       H  0.38090008  0.42872979  0.38518999     0.17430
H2991       H  0.44472197  0.49180745  0.33364357     0.17440
F2992       F  0.40409925  0.51706368  0.35875773    -0.20320
C2993       C  0.49170042  0.72048268  0.26866549    -0.21760
C2994       C  0.47230734  0.71774069  0.29068125    -0.09800
C2995       C  0.47111203  0.73956478  0.31068973     0.29060
C2996       C  0.48920371  0.76245404  0.30925162    -0.21760
C2997       C  0.50888441  0.76494059  0.28777331    -0.09810
C2998       C  0.50999248  0.74367717  0.26733844     0.29060
F2999       F  0.52994301  0.74438032  0.24716200    -0.20340
H3000       H  0.49308487  0.70444119  0.25280495     0.17430
H3001       H  0.48825163  0.77812701  0.32553130     0.17440
F3002       F  0.45225479  0.73917284  0.33189707    -0.20320
C3003       C  0.36410147  0.81446684  0.30431607    -0.21760
C3004       C  0.33641300  0.81353237  0.31413583    -0.09800
C3005       C  0.32426343  0.78814877  0.32181570     0.29060
C3006       C  0.33842693  0.76358870  0.31662083    -0.21760
C3007       C  0.36479724  0.76413235  0.30386592    -0.09810
C3008       C  0.37848370  0.78952435  0.29917024     0.29060
F3009       F  0.40428257  0.79013940  0.28735410    -0.20340
H3010       H  0.37354621  0.83420235  0.29845828     0.17430
H3011       H  0.32798741  0.74397058  0.32089828     0.17440
F3012       F  0.29786968  0.78705328  0.33229710    -0.20320
C3013       C  0.31124905  0.69737830  0.35906207    -0.21760
C3014       C  0.31569708  0.67721797  0.33824279    -0.09800
C3015       C  0.29623372  0.65572698  0.33429365     0.29060
C3016       C  0.27139978  0.65603623  0.34928421    -0.21760
C3017       C  0.26571543  0.67803347  0.36767759    -0.09810
C3018       C  0.28606871  0.69808400  0.37344421     0.29060
F3019       F  0.28105703  0.71894572  0.39193057    -0.20340
H3020       H  0.32641676  0.71369389  0.36290235     0.17430
H3021       H  0.25571791  0.64039824  0.34486629     0.17440
F3022       F  0.30068727  0.63519567  0.31525021    -0.20320
C3023       C  0.36107231  0.56636223  0.34747201    -0.21760
C3024       C  0.34194883  0.57787191  0.36697600    -0.09800
C3025       C  0.34177802  0.60691492  0.37018567     0.29060
C3026       C  0.36184788  0.62341830  0.35726408    -0.21760
C3027       C  0.38222200  0.61243580  0.33871976    -0.09810
C3028       C  0.38073453  0.58353255  0.33299480     0.29060
F3029       F  0.39882734  0.57173120  0.31463057    -0.20340
H3030       H  0.36183839  0.54394357  0.34471151     0.17430
H3031       H  0.36126089  0.64538444  0.36250807     0.17440
F3032       F  0.32403071  0.61918141  0.38869837    -0.20320
C3033       C  0.34434424  0.40464150  0.50628007    -0.21760
C3034       C  0.36252209  0.38750279  0.49088436    -0.09800
C3035       C  0.36315777  0.39023822  0.46164914     0.29060
C3036       C  0.34815292  0.41181582  0.44846925    -0.21760
C3037       C  0.33306349  0.43131791  0.46442032    -0.09810
C3038       C  0.32966950  0.42635048  0.49319216     0.29060
F3039       F  0.31551446  0.44502003  0.50923667    -0.20340
H3040       H  0.34318901  0.40304252  0.52871407     0.17430
H3041       H  0.35158357  0.41559005  0.42640551     0.17440
F3042       F  0.38069146  0.37407722  0.44623689    -0.20320
C3043       C  0.45018679  0.34168331  0.43049551    -0.21760
C3044       C  0.46530077  0.34258271  0.45564868    -0.09800
C3045       C  0.49346423  0.35113276  0.45506082     0.29060
C3046       C  0.50491388  0.36218935  0.43063925    -0.21760
C3047       C  0.48868422  0.36451757  0.40641467    -0.09810
C3048       C  0.46184249  0.35268504  0.40588862     0.29060
F3049       F  0.44588752  0.35453682  0.38252756    -0.20340
H3050       H  0.42847576  0.33528553  0.43049460     0.17430
H3051       H  0.52564106  0.37128090  0.43132560     0.17440
F3052       F  0.50897556  0.35155442  0.47883752    -0.20320
C3053       C  0.27028322  0.48162018  0.77267182    -0.21760
C3054       C  0.28766364  0.50530574  0.77235956    -0.09800
C3055       C  0.30463087  0.50949237  0.74829178     0.29060
C3056       C  0.30423617  0.49072490  0.72570977    -0.21760
C3057       C  0.28690089  0.46724051  0.72604693    -0.09810
C3058       C  0.27018967  0.46262035  0.75005178     0.29060
F3059       F  0.25476064  0.43893890  0.75224442    -0.20340
H3060       H  0.25721960  0.47745907  0.79069530     0.17430
H3061       H  0.31760226  0.49459634  0.70783323     0.17440
F3062       F  0.32155097  0.53206597  0.74607843    -0.20320
C3063       C  0.29293620  0.38131301  0.80675220    -0.21760
C3064       C  0.30982618  0.37630195  0.78347083    -0.09800
C3065       C  0.33171574  0.35671561  0.78512085     0.29060
C3066       C  0.33324690  0.33859957  0.80779153    -0.21760
C3067       C  0.31444580  0.34168870  0.82979730    -0.09810
C3068       C  0.29589986  0.36451596  0.83042076     0.29060
F3069       F  0.27863943  0.36856313  0.85257516    -0.20340
H3070       H  0.27586348  0.39622990  0.80558729     0.17430
H3071       H  0.34787479  0.32126302  0.80741448     0.17440
F3072       F  0.34892495  0.35242190  0.76304944    -0.20320
C3073       C  0.33701819  0.38517951  0.59676301    -0.21760
C3074       C  0.32162694  0.37424851  0.61897999    -0.09800
C3075       C  0.32069354  0.34478282  0.62190401     0.29060
C3076       C  0.33715101  0.32698150  0.60511588    -0.21760
C3077       C  0.35446921  0.33809461  0.58430703    -0.09810
C3078       C  0.35327490  0.36735788  0.57983453     0.29060
F3079       F  0.37084091  0.37924326  0.56140111    -0.20340
H3080       H  0.33857373  0.40761625  0.59414436     0.17430
H3081       H  0.33801030  0.30484120  0.60990932     0.17440
F3082       F  0.30524715  0.33330450  0.64259412    -0.20320
C3083       C  0.16090140  0.89073973  0.24432324    -0.21760
C3084       C  0.13910111  0.87831574  0.25960644    -0.09800
C3085       C  0.13922613  0.88043263  0.28890878     0.29060
C3086       C  0.16291272  0.89082823  0.30261172    -0.21760
C3087       C  0.18638549  0.89943880  0.28721299    -0.09810
C3088       C  0.18446714  0.90114997  0.25800714     0.29060
F3089       F  0.20703236  0.90883651  0.24261001    -0.20340
H3090       H  0.16127493  0.88914892  0.22173365     0.17430
H3091       H  0.16429173  0.88878372  0.32513053     0.17440
F3092       F  0.11873318  0.86826043  0.30431143    -0.20320
C3093       C  0.12568589  0.86970104  0.11775738    -0.21760
C3094       C  0.13689360  0.89505951  0.12769650    -0.09800
C3095       C  0.12642426  0.90513113  0.15340717     0.29060
C3096       C  0.10613415  0.88995090  0.16867647    -0.21760
C3097       C  0.09466454  0.86479236  0.15841998    -0.09810
C3098       C  0.10435946  0.85540660  0.13216401     0.29060
F3099       F  0.09391641  0.83177510  0.12057548    -0.20340
H3100       H  0.13287563  0.86111493  0.09811341     0.17430
H3101       H  0.09968016  0.89779568  0.18888604     0.17440
F3102       F  0.13588039  0.92961910  0.16401713    -0.20320
C3103       C  0.08987491  0.74896779  0.30215125    -0.21760
C3104       C  0.08971551  0.77816734  0.30475197    -0.09800
C3105       C  0.09759598  0.79013788  0.33033376     0.29060
C3106       C  0.10799229  0.77322612  0.35201391    -0.21760
C3107       C  0.11143295  0.74431003  0.34803755    -0.09810
C3108       C  0.10085528  0.73212080  0.32348320     0.29060
F3109       F  0.10376603  0.70424015  0.31894928    -0.20340
H3110       H  0.08451295  0.73942223  0.28235636     0.17430
H3111       H  0.11629775  0.78312975  0.37055713     0.17440
F3112       F  0.09806357  0.81835143  0.33321871    -0.20320
C3113       C  0.10509378  0.69322725  0.85259316    -0.21760
C3114       C  0.11392556  0.72113620  0.85422353    -0.09800
C3115       C  0.10478738  0.74041363  0.83405800     0.29060
C3116       C  0.08951714  0.73134223  0.81102295    -0.21760
C3117       C  0.08386047  0.70274488  0.80725785    -0.09810
C3118       C  0.08961422  0.68410699  0.82939782     0.29060
F3119       F  0.08333933  0.65656603  0.82708342    -0.20340
H3120       H  0.11185145  0.67816958  0.86817512     0.17430
H3121       H  0.08521255  0.74618645  0.79438770     0.17440
F3122       F  0.11342291  0.76741120  0.83490646    -0.20320
C3123       C  0.19305739  0.65558342  0.90550920    -0.21760
C3124       C  0.21023250  0.67831704  0.91238624    -0.09800
C3125       C  0.23947184  0.67512503  0.91004052     0.29060
C3126       C  0.25080562  0.65163319  0.89683988    -0.21760
C3127       C  0.23326468  0.63078962  0.88629485    -0.09810
C3128       C  0.20450713  0.63195361  0.89236319     0.29060
F3129       F  0.18713262  0.61184958  0.88269030    -0.20340
H3130       H  0.17051791  0.65759227  0.90684636     0.17430
H3131       H  0.27297573  0.65125690  0.89211174     0.17440
F3132       F  0.25675823  0.69654563  0.91680563    -0.20320
C3133       C  0.08080714  0.91271416  0.94251492    -0.21760
C3134       C  0.08392370  0.93485042  0.92358650    -0.09800
C3135       C  0.10420874  0.95548412  0.92823318     0.29060
C3136       C  0.11931545  0.95523816  0.95306501    -0.21760
C3137       C  0.11487691  0.93392869  0.97270861    -0.09810
C3138       C  0.09660149  0.91186614  0.96672329     0.29060
F3139       F  0.09185965  0.89103467  0.98549849    -0.20340
H3140       H  0.06560881  0.89638940  0.93885518     0.17430
H3141       H  0.13332472  0.97238686  0.95765188     0.17440
F3142       F  0.10783675  0.97694334  0.90996463    -0.20320
C3143       C  0.08919071  0.80931230  0.88129332    -0.21760
C3144       C  0.10492097  0.81992353  0.90403685    -0.09800
C3145       C  0.10507935  0.84892318  0.90767732     0.29060
C3146       C  0.09296305  0.86665723  0.88789923    -0.21760
C3147       C  0.07879230  0.85673017  0.86395670    -0.09810
C3148       C  0.07582133  0.82748197  0.86163580     0.29060
F3149       F  0.06186299  0.81645681  0.83963552    -0.20340
H3150       H  0.08907104  0.78702014  0.87755933     0.17430
H3151       H  0.09599909  0.88874024  0.89104409     0.17440
F3152       F  0.12055376  0.86039232  0.92847970    -0.20320
C3153       C  0.06386968  0.03289392  0.14478445    -0.21760
C3154       C  0.04087593  0.01540692  0.14997847    -0.09800
C3155       C  0.04396619  0.98640922  0.14729816     0.29060
C3156       C  0.06880742  0.97533312  0.13671425    -0.21760
C3157       C  0.09053444  0.99310536  0.12803981    -0.09810
C3158       C  0.08870996  0.02181128  0.13379197     0.29060
F3159       F  0.10903170  0.03950398  0.12491546    -0.20340
H3160       H  0.06145946  0.05539605  0.14608226     0.17430
H3161       H  0.06979679  0.95315936  0.13213310     0.17440
F3162       F  0.02178556  0.96921996  0.15146581    -0.20320
C3163       C  0.87283797  0.15385783  0.13373037    -0.21760
C3164       C  0.87330798  0.14894495  0.10460497    -0.09800
C3165       C  0.89329223  0.13008163  0.09450014     0.29060
C3166       C  0.91046763  0.11489477  0.11326654    -0.21760
C3167       C  0.90748887  0.11746341  0.14257200    -0.09810
C3168       C  0.88974350  0.13847295  0.15246732     0.29060
F3169       F  0.88950037  0.14467209  0.18011002    -0.20340
H3170       H  0.85878570  0.16923260  0.14217036     0.17430
H3171       H  0.92573774  0.10052563  0.10488414     0.17440
F3172       F  0.89662490  0.12701133  0.06655959    -0.20320
C3173       C  0.87949855  0.22353295  0.17975452    -0.21760
C3174       C  0.86873599  0.23921970  0.15730393    -0.09800
C3175       C  0.87513346  0.26785671  0.15545110     0.29060
C3176       C  0.88871771  0.28111522  0.17770111    -0.21760
C3177       C  0.89642590  0.26588409  0.20164111    -0.09810
C3178       C  0.89342755  0.23671118  0.20167305     0.29060
F3179       F  0.90015583  0.22159086  0.22478631    -0.20340
H3180       H  0.87494930  0.20142755  0.18156550     0.17430
H3181       H  0.89011585  0.30373019  0.17769128     0.17440
F3182       F  0.86496846  0.28368439  0.13413087    -0.20320
C3183       C  0.78740970  0.30578788  0.11010224    -0.21760
C3184       C  0.77138099  0.28160131  0.10600128    -0.09800
C3185       C  0.74255593  0.28238640  0.11124164     0.29060
C3186       C  0.73053197  0.30606733  0.12327204    -0.21760
C3187       C  0.74718161  0.32900923  0.13068974    -0.09810
C3188       C  0.77533712  0.32956649  0.12229606     0.29060
F3189       F  0.79191567  0.35147948  0.12908604    -0.20340
H3190       H  0.80980698  0.30522723  0.10667875     0.17430
H3191       H  0.70866663  0.30552326  0.12913324     0.17440
F3192       F  0.72675381  0.25909278  0.10784546    -0.20320
C3193       C  0.69128359  0.88544901  0.24516164    -0.21760
C3194       C  0.69360953  0.88752504  0.21592920    -0.09800
C3195       C  0.67078646  0.87976389  0.19921340     0.29060
C3196       C  0.64755859  0.86679144  0.21144526    -0.21760
C3197       C  0.64674268  0.86203713  0.24037775    -0.09810
C3198       C  0.66798347  0.87276895  0.25735873     0.29060
F3199       F  0.66764965  0.86820688  0.28537493    -0.20340
H3200       H  0.70884939  0.89093031  0.25834020     0.17430
H3201       H  0.63139351  0.85827510  0.19812700     0.17440
F3202       F  0.67268512  0.88091000  0.17092625    -0.20320
C3203       C  0.93904853  0.91244956  0.11503492    -0.21760
C3204       C  0.92320638  0.91091778  0.09032414    -0.09800
C3205       C  0.90562260  0.93329748  0.08274193     0.29060
C3206       C  0.90579893  0.95765889  0.09850692    -0.21760
C3207       C  0.92387086  0.95999697  0.12138575    -0.09810
C3208       C  0.93966009  0.93705798  0.13033482     0.29060
F3209       F  0.95709819  0.93919859  0.15259959    -0.20340
H3210       H  0.95252020  0.89534596  0.12146290     0.17430
H3211       H  0.89385008  0.97559582  0.09130932     0.17440
F3212       F  0.88962479  0.93232888  0.05932258    -0.20320
C3213       C  0.82224409  0.87153949  0.09566107    -0.21760
C3214       C  0.83537488  0.88887994  0.11577168    -0.09800
C3215       C  0.86415027  0.88471639  0.12005087     0.29060
C3216       C  0.87813527  0.86216554  0.10822724    -0.21760
C3217       C  0.86585868  0.84466416  0.08802180    -0.09810
C3218       C  0.83761349  0.85036091  0.08106243     0.29060
F3219       F  0.82449981  0.83468728  0.06151531    -0.20340
H3220       H  0.79991131  0.87330028  0.09235138     0.17430
H3221       H  0.89940845  0.85888647  0.11512512     0.17440
F3222       F  0.87835201  0.90073938  0.13864753    -0.20320
C3223       C  0.06567531  0.86545369  0.05944454    -0.21760
C3224       C  0.06571254  0.89392924  0.06644029    -0.09800
C3225       C  0.04086981  0.90768345  0.07346569     0.29060
C3226       C  0.01576628  0.89407830  0.06995748    -0.21760
C3227       C  0.01542411  0.86682135  0.05941388    -0.09810
C3228       C  0.04028890  0.85173879  0.05586593     0.29060
F3229       F  0.03998104  0.82506045  0.04626724    -0.20340
H3230       H  0.08497950  0.85473189  0.05424523     0.17430
H3231       H  0.99646239  0.90544316  0.07370187     0.17440
F3232       F  0.04080456  0.93492053  0.08145214    -0.20320
C3233       C  0.99030148  0.83380686  0.94597980    -0.21760
C3234       C  0.96130649  0.82878207  0.94700101    -0.09800
C3235       C  0.94530488  0.83341086  0.92279464     0.29060
C3236       C  0.95727999  0.84721078  0.89983071    -0.21760
C3237       C  0.98500776  0.85667561  0.90115040    -0.09810
C3238       C  0.00200798  0.84816976  0.92342000     0.29060
F3239       F  0.02917070  0.85625027  0.92464669    -0.20340
H3240       H  0.00309355  0.83020304  0.96434926     0.17430
H3241       H  0.94426279  0.85256404  0.88213103     0.17440
F3242       F  0.91736335  0.82852773  0.92289533    -0.20320
C3243       C  0.14625537  0.06324851  0.04821357    -0.21760
C3244       C  0.15450932  0.03889835  0.03405082    -0.09800
C3245       C  0.15519911  0.03922306  0.00471044     0.29060
C3246       C  0.14417762  0.06203211  0.98994261    -0.21760
C3247       C  0.13234781  0.08484678  0.00421357    -0.09810
C3248       C  0.13545591  0.08626748  0.03341171     0.29060
F3249       F  0.12414693  0.10784588  0.04793506    -0.20340
H3250       H  0.14487742  0.06312530  0.07081731     0.17430
H3251       H  0.14198019  0.06044568  0.96745944     0.17440
F3252       F  0.16240414  0.01577075  0.99044931    -0.20320
C3253       C  0.07239501  0.02119107  0.86786527    -0.21760
C3254       C  0.04529796  0.01614751  0.85781131    -0.09800
C3255       C  0.02379833  0.03535861  0.86295021     0.29060
C3256       C  0.02879872  0.05803541  0.88030416    -0.21760
C3257       C  0.05494432  0.06097270  0.89312843    -0.09810
C3258       C  0.07707676  0.04318589  0.88624036     0.29060
F3259       F  0.10229893  0.04570509  0.89896713    -0.20340
H3260       H  0.08893517  0.00601696  0.86451537     0.17430
H3261       H  0.01168984  0.07199529  0.88557163     0.17440
F3262       F  0.99738435  0.03033190  0.85389656    -0.20320
C3263       C  0.03013495  0.11288767  0.09510604    -0.21760
C3264       C  0.00157764  0.10707244  0.09154504    -0.09800
C3265       C  0.98802874  0.11667198  0.06717908     0.29060
C3266       C  0.00337363  0.12923475  0.04570766    -0.21760
C3267       C  0.03244146  0.13202676  0.04793988    -0.09810
C3268       C  0.04559350  0.12493126  0.07325741     0.29060
F3269       F  0.07378500  0.12687751  0.07569886    -0.20340
H3270       H  0.04104706  0.10552232  0.11356801     0.17430
H3271       H  0.99300717  0.13391764  0.02608755     0.17440
F3272       F  0.96040892  0.11172067  0.06304910    -0.20320
C3273       C  0.28029666  0.13634312  0.88179124    -0.21760
C3274       C  0.25129975  0.13664919  0.87736202    -0.09800
C3275       C  0.23539644  0.15912750  0.88778517     0.29060
C3276       C  0.24869413  0.18267668  0.89868718    -0.21760
C3277       C  0.27793381  0.18383173  0.89983064    -0.09810
C3278       C  0.29360305  0.15989297  0.89294423     0.29060
F3279       F  0.32194649  0.16063386  0.89366669    -0.20340
H3280       H  0.29293625  0.11935473  0.87369211     0.17430
H3281       H  0.23632221  0.20105058  0.90359537     0.17440
F3282       F  0.20718088  0.15946062  0.88474525    -0.20320
C3283       C  0.16344265  0.10116313  0.90071622    -0.21760
C3284       C  0.15243069  0.08741221  0.87712045    -0.09800
C3285       C  0.12555702  0.09599574  0.86800398     0.29060
C3286       C  0.11155096  0.11863241  0.88054101    -0.21760
C3287       C  0.12164626  0.13128796  0.90504184    -0.09810
C3288       C  0.14806146  0.12210836  0.91493803     0.29060
F3289       F  0.15920644  0.13337944  0.93839581    -0.20340
H3290       H  0.18411804  0.09572485  0.90824045     0.17430
H3291       H  0.09178156  0.12524313  0.87167801     0.17440
F3292       F  0.11292256  0.08317652  0.84613792    -0.20320
C3293       C  0.89958322  0.19318706  0.67660757    -0.21760
C3294       C  0.90478762  0.20946467  0.70037854    -0.09800
C3295       C  0.90071341  0.23869349  0.69867744     0.29060
C3296       C  0.88643503  0.25029751  0.67600208    -0.21760
C3297       C  0.87735344  0.23320056  0.65423768    -0.09810
C3298       C  0.88607543  0.20512679  0.65342244     0.29060
F3299       F  0.87896217  0.18865759  0.63156869    -0.20340
H3300       H  0.90263977  0.17073684  0.67729336     0.17430
H3301       H  0.88031333  0.27211462  0.67662277     0.17440
F3302       F  0.90653084  0.25530989  0.72088859    -0.20320
C3303       C  0.89702746  0.93800750  0.88137264    -0.21760
C3304       C  0.88897082  0.96582528  0.87652562    -0.09800
C3305       C  0.90168629  0.98055952  0.85443932     0.29060
C3306       C  0.92454981  0.96882110  0.84013263    -0.21760
C3307       C  0.93415596  0.94176053  0.84672426    -0.09810
C3308       C  0.91893561  0.92588423  0.86621810     0.29060
F3309       F  0.92802515  0.90012201  0.87379434    -0.20340
H3310       H  0.88759947  0.92620507  0.89824488     0.17430
H3311       H  0.93636975  0.98179870  0.82579886     0.17440
F3312       F  0.89413748  0.00728436  0.84872745    -0.20320
C3313       C  0.92553571  0.09230684  0.93611583    -0.21760
C3314       C  0.92196332  0.06614433  0.94891024    -0.09800
C3315       C  0.94361984  0.05401052  0.96442540     0.29060
C3316       C  0.96886885  0.06774563  0.96688264    -0.21760
C3317       C  0.97307673  0.09346156  0.95339786    -0.09810
C3318       C  0.95130651  0.10583356  0.93793739     0.29060
F3319       F  0.95492834  0.13079316  0.92483500    -0.20340
H3320       H  0.90863567  0.10183901  0.92433964     0.17430
H3321       H  0.98551655  0.05772213  0.97861774     0.17440
F3322       F  0.94016398  0.02904932  0.97760096    -0.20320
C3323       C  0.85813125  0.10465537  0.83248472    -0.21760
C3324       C  0.88749524  0.10167769  0.83359373    -0.09800
C3325       C  0.89845177  0.08048813  0.85070893     0.29060
C3326       C  0.88025930  0.06368521  0.86684110    -0.21760
C3327       C  0.85078853  0.06721757  0.86603737    -0.09810
C3328       C  0.83993249  0.08757188  0.84800189     0.29060
F3329       F  0.81214537  0.09345480  0.84813560    -0.20340
H3330       H  0.84947071  0.12258915  0.82189985     0.17430
H3331       H  0.88935720  0.04943042  0.88199437     0.17440
F3332       F  0.92649895  0.07820119  0.85441643    -0.20320
C3333       C  0.84598117  0.03277378  0.05227464    -0.21760
C3334       C  0.85544060  0.04671175  0.02837269    -0.09800
C3335       C  0.87784165  0.06549882  0.02994613     0.29060
C3336       C  0.89326056  0.06717514  0.05423339    -0.21760
C3337       C  0.88519315  0.05180011  0.07756745    -0.09810
C3338       C  0.86064368  0.03578283  0.07726364     0.29060
F3339       F  0.85305892  0.02042032  0.09993033    -0.20340
H3340       H  0.82902808  0.01785944  0.05096678     0.17430
H3341       H  0.91263207  0.07885798  0.05424339     0.17440
F3342       F  0.88703759  0.07945330  0.00701830    -0.20320
C3343       C  0.84444164  0.89830549  0.00235255    -0.21760
C3344       C  0.86032121  0.88177157  0.98411879    -0.09800
C3345       C  0.85873860  0.88676202  0.95522400     0.29060
C3346       C  0.84346412  0.90965761  0.94499798    -0.21760
C3347       C  0.83095877  0.92860412  0.96359790    -0.09810
C3348       C  0.83002628  0.92176410  0.99224189     0.29060
F3349       F  0.81836106  0.93978079  0.01080151    -0.20340
H3350       H  0.84575293  0.89490538  0.02472570     0.17430
H3351       H  0.84474439  0.91468243  0.92295038     0.17440
F3352       F  0.87425854  0.87126577  0.93722057    -0.20320
C3353       C  0.19953121  0.99045920  0.72035225    -0.21760
C3354       C  0.20200283  0.96234275  0.72797977    -0.09800
C3355       C  0.20706905  0.95588934  0.75644803     0.29060
C3356       C  0.20746872  0.97686396  0.77708574    -0.21760
C3357       C  0.20273119  0.00484547  0.76975651    -0.09810
C3358       C  0.19988007  0.01144828  0.74086745     0.29060
F3359       F  0.19663938  0.03838116  0.73236931    -0.20340
H3360       H  0.19586752  0.99612181  0.69872224     0.17430
H3361       H  0.21018055  0.97105928  0.79881339     0.17440
F3362       F  0.21115899  0.92896557  0.76432681    -0.20320
C3363       C  0.09582362  0.78607437  0.70112797    -0.21760
C3364       C  0.10550393  0.76228004  0.68723092    -0.09800
C3365       C  0.12707377  0.76434646  0.66743829     0.29060
C3366       C  0.14140215  0.78928665  0.66438434    -0.21760
C3367       C  0.13391058  0.81221470  0.68071164    -0.09810
C3368       C  0.10988473  0.81134604  0.69758585     0.29060
F3369       F  0.10244430  0.83369068  0.71339588    -0.20340
H3370       H  0.07937165  0.78444539  0.71662003     0.17430
H3371       H  0.15984805  0.79000660  0.65121439     0.17440
F3372       F  0.13657574  0.74138637  0.65375121    -0.20320
C3373       C  0.17163292  0.81975513  0.77329769    -0.21760
C3374       C  0.18201353  0.84698627  0.77246358    -0.09800
C3375       C  0.18884364  0.86092170  0.79713775     0.29060
C3376       C  0.18711666  0.84674124  0.82253906    -0.21760
C3377       C  0.17878180  0.81856649  0.82327378    -0.09810
C3378       C  0.16994285  0.80549926  0.79849208     0.29060
F3379       F  0.16113085  0.77853949  0.79818182    -0.20340
H3380       H  0.16597112  0.80909138  0.75415876     0.17430
H3381       H  0.19356457  0.85739318  0.84139739     0.17440
F3382       F  0.19815624  0.88761859  0.79663895    -0.20320
C3383       C  0.96209667  0.74459526  0.53981936    -0.21760
C3384       C  0.96894055  0.71635364  0.53681476    -0.09800
C3385       C  0.99748261  0.70915045  0.53299161     0.29060
C3386       C  0.01872905  0.72955221  0.53367406    -0.21760
C3387       C  0.01208355  0.75765692  0.53862693    -0.09810
C3388       C  0.98325445  0.76496867  0.54081110     0.29060
F3389       F  0.97535068  0.79198437  0.54461622    -0.20340
H3390       H  0.94050378  0.75078390  0.54288234     0.17430
H3391       H  0.04037871  0.72316698  0.53160169     0.17440
F3392       F  0.00488699  0.68200966  0.52930817    -0.20320
C3393       C  0.92470594  0.87568020  0.53453490    -0.21760
C3394       C  0.92140482  0.89823913  0.55306905    -0.09800
C3395       C  0.94292182  0.90499416  0.57174755     0.29060
C3396       C  0.96802526  0.89063250  0.57046044    -0.21760
C3397       C  0.97205387  0.86995103  0.55029376    -0.09810
C3398       C  0.95029761  0.86198439  0.53263271     0.29060
F3399       F  0.95407876  0.84165561  0.51324308    -0.20340
H3400       H  0.90806251  0.86961159  0.52049748     0.17430
H3401       H  0.98496160  0.89691175  0.58401325     0.17440
F3402       F  0.94018236  0.92609450  0.59046174    -0.20320
C3403       C  0.16082434  0.86822700  0.59739338    -0.21760
C3404       C  0.14876630  0.88040129  0.62148284    -0.09800
C3405       C  0.12243640  0.87009225  0.62989972     0.29060
C3406       C  0.11037979  0.84679756  0.61668344    -0.21760
C3407       C  0.12129687  0.83584554  0.59156316    -0.09810
C3408       C  0.14696364  0.84705954  0.58214295     0.29060
F3409       F  0.15883099  0.83757124  0.55820732    -0.20340
H3410       H  0.18114416  0.87514774  0.59021304     0.17430
H3411       H  0.09095809  0.83877196  0.62508400     0.17440
F3412       F  0.10834894  0.88206242  0.65142317    -0.20320
C3413       C  0.14994561  0.92854719  0.48639010    -0.21760
C3414       C  0.14807610  0.92852233  0.45716317    -0.09800
C3415       C  0.13923843  0.90409751  0.44353653     0.29060
C3416       C  0.12952531  0.88118962  0.45909462    -0.21760
C3417       C  0.12772637  0.88282966  0.48832486    -0.09810
C3418       C  0.13967711  0.90595584  0.50193884     0.29060
F3419       F  0.13832047  0.90813382  0.53019915    -0.20340
H3420       H  0.15619480  0.94737323  0.49724665     0.17430
H3421       H  0.12016871  0.86376829  0.44818069     0.17440
F3422       F  0.13698406  0.90365349  0.41527482    -0.20320
C3423       C  0.21647389  0.21410877  0.49414192    -0.21760
C3424       C  0.22064262  0.20053608  0.51992806    -0.09800
C3425       C  0.24765773  0.18908529  0.52515563     0.29060
C3426       C  0.26930928  0.19083779  0.50549634    -0.21760
C3427       C  0.26480483  0.20302416  0.47940664    -0.09810
C3428       C  0.23807437  0.21468690  0.47380826     0.29060
F3429       F  0.23254087  0.22565078  0.44819027    -0.20340
H3430       H  0.19616192  0.22284682  0.48912611     0.17430
H3431       H  0.28917746  0.18083619  0.51001959     0.17440
F3432       F  0.25327377  0.17495758  0.54903560    -0.20320
C3433       C  0.22364063  0.30045137  0.59820452    -0.21760
C3434       C  0.19798670  0.28990175  0.60778059    -0.09800
C3435       C  0.18449751  0.30321102  0.63017500     0.29060
C3436       C  0.19767443  0.32466281  0.64457604    -0.21760
C3437       C  0.22416646  0.33396368  0.63641083    -0.09810
C3438       C  0.23639169  0.32294973  0.61201466     0.29060
F3439       F  0.26175990  0.33195348  0.60318634    -0.20340
H3440       H  0.23479156  0.28987943  0.58157875     0.17430
H3441       H  0.18787917  0.33281335  0.66326614     0.17440
F3442       F  0.16042638  0.29270084  0.64078256    -0.20320
C3443       C  0.20061579  0.11771711  0.67692761    -0.21760
C3444       C  0.17780167  0.13570737  0.67238345    -0.09800
C3445       C  0.15612218  0.13729763  0.69195481     0.29060
C3446       C  0.15898087  0.12368177  0.71736624    -0.21760
C3447       C  0.18381428  0.10926070  0.72347923    -0.09810
C3448       C  0.20400748  0.10498408  0.70278796     0.29060
F3449       F  0.22766679  0.09016203  0.70820276    -0.20340
H3450       H  0.21713781  0.11569643  0.66156825     0.17430
H3451       H  0.14304244  0.12671826  0.73319678     0.17440
F3452       F  0.13329422  0.15358738  0.68733558    -0.20320
C3453       C  0.01162899  0.99207807  0.73707845    -0.21760
C3454       C  0.03649255  0.00698759  0.73158695    -0.09800
C3455       C  0.06138059  0.99698007  0.74385206     0.29060
C3456       C  0.06131992  0.97303648  0.76100394    -0.21760
C3457       C  0.03655291  0.95797300  0.76654001    -0.09810
C3458       C  0.01157788  0.96794877  0.75425658     0.29060
F3459       F  0.98701753  0.95458956  0.75894518    -0.20340
H3460       H  0.99220438  0.99869797  0.72743135     0.17430
H3461       H  0.08090093  0.96653423  0.77039754     0.17440
F3462       F  0.08594446  0.01045024  0.73943528    -0.20320
C3463       C  0.07701268  0.01056500  0.52310102    -0.21760
C3464       C  0.10273459  0.02378640  0.51869284    -0.09800
C3465       C  0.11516913  0.03926699  0.54023461     0.29060
C3466       C  0.10154251  0.04168916  0.56594038    -0.21760
C3467       C  0.07519012  0.02948932  0.56964111    -0.09810
C3468       C  0.06312943  0.01365342  0.54829074     0.29060
F3469       F  0.03795450  0.00106098  0.55190093    -0.20340
H3470       H  0.06705688  0.99878363  0.50657142     0.17430
H3471       H  0.11105291  0.05365172  0.58259521     0.17440
F3472       F  0.14024275  0.05194947  0.53635873    -0.20320
C3473       C  0.93171900  0.98656215  0.65666274    -0.21760
C3474       C  0.93562415  0.01563779  0.65947726    -0.09800
C3475       C  0.91378121  0.03362428  0.65137812     0.29060
C3476       C  0.89122298  0.02314278  0.63590368    -0.21760
C3477       C  0.88990587  0.99461042  0.62920892    -0.09810
C3478       C  0.90914700  0.97610364  0.64140819     0.29060
F3479       F  0.90798328  0.94831577  0.63578286    -0.20340
H3480       H  0.94815308  0.97218384  0.66292272     0.17430
H3481       H  0.87595726  0.03758326  0.62750898     0.17440
F3482       F  0.91615595  0.06163703  0.65489681    -0.20320
C3483       C  0.03559012  0.90673722  0.61896570    -0.21760
C3484       C  0.05864261  0.90626904  0.60089907    -0.09800
C3485       C  0.07931551  0.92669702  0.60255347     0.29060
C3486       C  0.07540858  0.94917781  0.62049968    -0.21760
C3487       C  0.05043973  0.95154913  0.63578122    -0.09810
C3488       C  0.03106577  0.92976804  0.63597177     0.29060
F3489       F  0.00655847  0.93225425  0.65011023    -0.20340
H3490       H  0.02000270  0.89037413  0.61818060     0.17430
H3491       H  0.09018903  0.96631099  0.61990473     0.17440
F3492       F  0.10207083  0.92581512  0.58559861    -0.20320
C3493       C  0.11092490  0.10686847  0.64276846    -0.21760
C3494       C  0.08261919  0.11309163  0.64704766    -0.09800
C3495       C  0.07118992  0.13568583  0.63149270     0.29060
C3496       C  0.08793605  0.15081860  0.61184538    -0.21760
C3497       C  0.11571301  0.14234671  0.60587425    -0.09810
C3498       C  0.12640322  0.11952042  0.62172275     0.29060
F3499       F  0.15209944  0.10836390  0.61687015    -0.20340
H3500       H  0.12053104  0.08948496  0.65383959     0.17430
H3501       H  0.07894886  0.16847172  0.60079050     0.17440
F3502       F  0.04370392  0.14220755  0.63417955    -0.20320
C3503       C  0.50034458  0.22386908  0.23386010    -0.21760
C3504       C  0.51269335  0.21373967  0.20905540    -0.09800
C3505       C  0.50833052  0.22954932  0.18435463     0.29060
C3506       C  0.49188344  0.25397829  0.18446225    -0.21760
C3507       C  0.47932274  0.26400333  0.20907642    -0.09810
C3508       C  0.48383083  0.24852772  0.23392284     0.29060
F3509       F  0.47124718  0.25643605  0.25807712    -0.20340
H3510       H  0.50352454  0.21271956  0.25334413     0.17430
H3511       H  0.48853496  0.26490906  0.16487321     0.17440
F3512       F  0.52001583  0.22157446  0.15977196    -0.20320
C3513       C  0.59411432  0.24003718  0.33765112    -0.21760
C3514       C  0.60985432  0.22388327  0.35643081    -0.09800
C3515       C  0.60992428  0.19462822  0.35383763     0.29060
C3516       C  0.59664990  0.18197839  0.33107587    -0.21760
C3517       C  0.58396913  0.19847915  0.31029553    -0.09810
C3518       C  0.58124496  0.22744964  0.31466272     0.29060
F3519       F  0.56943968  0.24393805  0.29471862    -0.20340
H3520       H  0.59430617  0.26265241  0.33910544     0.17430
H3521       H  0.59971538  0.15977374  0.32770819     0.17440
F3522       F  0.62574987  0.17866602  0.37126070    -0.20320
C3523       C  0.69435154  0.15935666  0.17931866    -0.21760
C3524       C  0.66937486  0.16784196  0.16665320    -0.09800
C3525       C  0.66894282  0.17399113  0.13775276     0.29060
C3526       C  0.69381865  0.17384495  0.12251202    -0.21760
C3527       C  0.71890676  0.16747108  0.13600765    -0.09810
C3528       C  0.71902257  0.15972938  0.16428646     0.29060
F3529       F  0.74333901  0.15542149  0.17821747    -0.20340
H3530       H  0.69527502  0.15453259  0.20144281     0.17430
H3531       H  0.69377210  0.18040097  0.10081264     0.17440
F3532       F  0.64494758  0.18166101  0.12460012    -0.20320
C3533       C  0.64307852  0.26045719  0.18355826    -0.21760
C3534       C  0.61628563  0.25953957  0.19529927    -0.09800
C3535       C  0.60171861  0.28432422  0.20104911     0.29060
C3536       C  0.61546886  0.30993885  0.19786238    -0.21760
C3537       C  0.64357486  0.31031592  0.18928690    -0.09810
C3538       C  0.65680256  0.28565031  0.18079242     0.29060
F3539       F  0.68388824  0.28564745  0.17228278    -0.20340
H3540       H  0.65426731  0.24132931  0.17861760     0.17430
H3541       H  0.60520501  0.32901808  0.20452599     0.17440
F3542       F  0.57565304  0.28357775  0.21225667    -0.20320
C3543       C  0.74112573  0.05614834  0.01763497    -0.21760
C3544       C  0.72788790  0.03149551  0.02686779    -0.09800
C3545       C  0.73139381  0.00734450  0.01021611     0.29060
C3546       C  0.74777681  0.00796698  0.98550755    -0.21760
C3547       C  0.76111530  0.03267019  0.97630643    -0.09810
C3548       C  0.75759673  0.05677153  0.99312000     0.29060
F3549       F  0.77035303  0.08114256  0.98618738    -0.20340
H3550       H  0.73854580  0.07527993  0.02942503     0.17430
H3551       H  0.75012878  0.98889339  0.97359105     0.17440
F3552       F  0.71797311  0.98331735  0.01708583    -0.20320
C3553       C  0.64774584  0.90953405  0.05469799    -0.21760
C3554       C  0.65697094  0.93128880  0.03721249    -0.09800
C3555       C  0.65589584  0.92740128  0.00802770     0.29060
C3556       C  0.64153591  0.90466533  0.99681142    -0.21760
C3557       C  0.62887689  0.88497596  0.01440444    -0.09810
C3558       C  0.63347609  0.88656647  0.04337096     0.29060
F3559       F  0.62133365  0.86780910  0.06085150    -0.20340
H3560       H  0.64808196  0.91213038  0.07716914     0.17430
H3561       H  0.63783237  0.90409477  0.97449612     0.17440
F3562       F  0.66463356  0.94797168  0.99045381    -0.20320
C3563       C  0.54136396  0.11701791  0.05293792    -0.21760
C3564       C  0.51673594  0.10173352  0.04950637    -0.09800
C3565       C  0.51774783  0.07264289  0.04603150     0.29060
C3566       C  0.54295472  0.05871112  0.04725172    -0.21760
C3567       C  0.56777472  0.07355684  0.05080789    -0.09810
C3568       C  0.56710429  0.10299277  0.05282991     0.29060
F3569       F  0.59102627  0.11803361  0.05499352    -0.20340
H3570       H  0.54065136  0.13956188  0.05501925     0.17430
H3571       H  0.54304243  0.03616630  0.04496568     0.17440
F3572       F  0.49409586  0.05746845  0.04223429    -0.20320
C3573       C  0.61054188  0.08234966  0.17681394    -0.21760
C3574       C  0.58929911  0.09983775  0.16554022    -0.09800
C3575       C  0.58706935  0.10099581  0.13642263     0.29060
C3576       C  0.60685264  0.08797547  0.11940734    -0.21760
C3577       C  0.62988963  0.07261504  0.13009046    -0.09810
C3578       C  0.63059915  0.06865892  0.15933687     0.29060
F3579       F  0.65122454  0.05305433  0.17109487    -0.20340
H3580       H  0.61263893  0.08084166  0.19923711     0.17430
H3581       H  0.60439654  0.09103543  0.09727353     0.17440
F3582       F  0.56743597  0.11764465  0.12424998    -0.20320
C3583       C  0.74906848  0.18395374  0.97398871    -0.21760
C3584       C  0.72167248  0.19435303  0.97898388    -0.09800
C3585       C  0.71645816  0.20654158  0.00521487     0.29060
C3586       C  0.73756647  0.20674199  0.02600898    -0.21760
C3587       C  0.76461113  0.19569678  0.02093195    -0.09810
C3588       C  0.77012142  0.18460967  0.99447573     0.29060
F3589       F  0.79535678  0.17277356  0.98894717    -0.20340
H3590       H  0.75425436  0.17460400  0.95407342     0.17430
H3591       H  0.73252644  0.21479823  0.04654550     0.17440
F3592       F  0.69079366  0.21709133  0.01124239    -0.20320
C3593       C  0.76529966  0.16833837  0.83788935    -0.21760
C3594       C  0.76428249  0.17313165  0.86655553    -0.09800
C3595       C  0.78883427  0.17732824  0.88183401     0.29060
C3596       C  0.81445190  0.17825711  0.86780845    -0.21760
C3597       C  0.81529236  0.17541992  0.83856791    -0.09810
C3598       C  0.79045125  0.16968077  0.82381745     0.29060
F3599       F  0.78987097  0.16738681  0.79553610    -0.20340
H3600       H  0.74618506  0.16558330  0.82601395     0.17430
H3601       H  0.83333921  0.18238623  0.87955571     0.17440
F3602       F  0.78780996  0.18209791  0.90974579    -0.20320
C3603       C  0.56552728  0.99841430  0.76153265    -0.21760
C3604       C  0.54050079  0.01097582  0.77069502    -0.09800
C3605       C  0.51510980  0.99885103  0.76170173     0.29060
C3606       C  0.51514657  0.97521967  0.74367449    -0.21760
C3607       C  0.54046894  0.96284976  0.73463497    -0.09810
C3608       C  0.56561099  0.97496618  0.74408637     0.29060
F3609       F  0.59069576  0.96424583  0.73607900    -0.20340
H3610       H  0.58547048  0.00646726  0.76857452     0.17430
H3611       H  0.49542021  0.96710706  0.73617366     0.17440
F3612       F  0.49035728  0.00912985  0.77108272    -0.20320
C3613       C  0.45804537  0.11695054  0.90587123    -0.21760
C3614       C  0.48537496  0.10699708  0.91053031    -0.09800
C3615       C  0.49884721  0.11406407  0.93568767     0.29060
C3616       C  0.48464540  0.12855383  0.95643936    -0.21760
C3617       C  0.45630650  0.13489482  0.95334506    -0.09810
C3618       C  0.44324618  0.13018773  0.92750785     0.29060
F3619       F  0.41555119  0.13560289  0.92430042    -0.20340
H3620       H  0.44725945  0.11208506  0.88663709     0.17430
H3621       H  0.49483158  0.13148722  0.97645630     0.17440
F3622       F  0.52487991  0.10473853  0.94159977    -0.20320
C3623       C  0.61375154  0.06484807  0.96955211    -0.21760
C3624       C  0.63373070  0.04355159  0.97171411    -0.09800
C3625       C  0.63879295  0.02565141  0.94920086     0.29060
C3626       C  0.62236565  0.02808435  0.92521787    -0.21760
C3627       C  0.60013349  0.04728758  0.92463876    -0.09810
C3628       C  0.59618910  0.06593203  0.94666671     0.29060
F3629       F  0.57375615  0.08312896  0.94754713    -0.20340
H3630       H  0.60909710  0.07811852  0.98729686     0.17430
H3631       H  0.62538360  0.01351265  0.90819423     0.17440
F3632       F  0.65740438  0.00428415  0.95158452    -0.20320
C3633       C  0.54470879  0.91207975  0.88152032    -0.21760
C3634       C  0.56371531  0.90920317  0.90373906    -0.09800
C3635       C  0.58428482  0.92958911  0.90794903     0.29060
C3636       C  0.58331939  0.95424289  0.89253483    -0.21760
C3637       C  0.56139184  0.95884806  0.87364584    -0.09810
C3638       C  0.54299747  0.93721434  0.86698255     0.29060
F3639       F  0.52197520  0.94132732  0.84832467    -0.20340
H3640       H  0.52941924  0.89602457  0.87718114     0.17430
H3641       H  0.59770028  0.97089809  0.89768173     0.17440
F3642       F  0.60387516  0.92661455  0.92828728    -0.20320
C3643       C  0.59432731  0.14108332  0.84891589    -0.21760
C3644       C  0.57756680  0.11963921  0.85911144    -0.09800
C3645       C  0.57482991  0.11716300  0.88837557     0.29060
C3646       C  0.59133501  0.13295111  0.90693711    -0.21760
C3647       C  0.60924923  0.15356213  0.89669897    -0.09810
C3648       C  0.60896528  0.15843727  0.86751001     0.29060
F3649       F  0.62376209  0.17946450  0.85659567    -0.20340
H3650       H  0.59584204  0.14457204  0.82661851     0.17430
H3651       H  0.58984716  0.12945132  0.92922614     0.17440
F3652       F  0.55617399  0.09915350  0.89897445    -0.20320
C3653       C  0.39447919  0.18174915  0.82553008    -0.21760
C3654       C  0.40200465  0.19634959  0.80116227    -0.09800
C3655       C  0.39901187  0.22551134  0.80045113     0.29060
C3656       C  0.38462101  0.23916857  0.82178575    -0.21760
C3657       C  0.37397831  0.22410436  0.84468260    -0.09810
C3658       C  0.38086115  0.19561859  0.84745865     0.29060
F3659       F  0.37115176  0.18045882  0.86939695    -0.20340
H3660       H  0.39600951  0.15914192  0.82613081     0.17430
H3661       H  0.37968599  0.26109107  0.81903454     0.17440
F3662       F  0.40568191  0.24004089  0.77695145    -0.20320
C3663       C  0.31944478  0.08813606  0.80103328    -0.21760
C3664       C  0.29659472  0.07906960  0.78496827    -0.09800
C3665       C  0.29940656  0.07817016  0.75578239     0.29060
C3666       C  0.32340965  0.08891430  0.74286756    -0.21760
C3667       C  0.34500303  0.10084742  0.75879713    -0.09810
C3668       C  0.34359657  0.09881972  0.78809241     0.29060
F3669       F  0.36354039  0.11095012  0.80413377    -0.20340
H3670       H  0.31735151  0.08985961  0.82351147     0.17430
H3671       H  0.32377384  0.09072963  0.72028220     0.17440
F3672       F  0.27745081  0.07035001  0.73965744    -0.20320
C3673       C  0.26718307  0.16104974  0.65455884    -0.21760
C3674       C  0.26594332  0.17646772  0.62969079    -0.09800
C3675       C  0.29044043  0.18387033  0.61549260     0.29060
C3676       C  0.31620198  0.17853462  0.62809982    -0.21760
C3677       C  0.31702436  0.16581298  0.65456000    -0.09810
C3678       C  0.29266686  0.15543536  0.66686766     0.29060
F3679       F  0.29340302  0.14225563  0.69206115    -0.20340
H3680       H  0.24826475  0.15481811  0.66530651     0.17430
H3681       H  0.33509355  0.18668804  0.61862303     0.17440
F3682       F  0.28934154  0.19864990  0.59125221    -0.20320
C3683       C  0.33470666  0.26002925  0.68419386    -0.21760
C3684       C  0.35941488  0.25720266  0.69945755    -0.09800
C3685       C  0.37080311  0.27991247  0.71368598     0.29060
C3686       C  0.35682287  0.30545809  0.71317080    -0.21760
C3687       C  0.33077785  0.30780834  0.69974617    -0.09810
C3688       C  0.32007545  0.28501027  0.68469676     0.29060
F3689       F  0.29511976  0.28642176  0.67122497    -0.20340
H3690       H  0.32584883  0.24228215  0.67330312     0.17430
H3691       H  0.36574030  0.32291306  0.72430030     0.17440
F3692       F  0.39485382  0.27716512  0.72849718    -0.20320
C3693       C  0.26084886  0.00745081  0.50368185    -0.21760
C3694       C  0.25989593  0.02803556  0.52482344    -0.09800
C3695       C  0.23944276  0.04894836  0.52280817     0.29060
C3696       C  0.22018709  0.04903640  0.50075147    -0.21760
C3697       C  0.22066312  0.02845577  0.47953638    -0.09810
C3698       C  0.24134955  0.00747381  0.48135262     0.29060
F3699       F  0.24258805  0.98694319  0.46189380    -0.20340
H3700       H  0.27730091  0.99181948  0.50401818     0.17430
H3701       H  0.20472945  0.06564718  0.50028000     0.17440
F3702       F  0.23869998  0.07002117  0.54174161    -0.20320
C3703       C  0.39807483  0.06269344  0.44055784    -0.21760
C3704       C  0.39605763  0.03839048  0.42446968    -0.09800
C3705       C  0.37675779  0.01751755  0.43148306     0.29060
C3706       C  0.36218406  0.01950560  0.45649715    -0.21760
C3707       C  0.36638571  0.04257096  0.47392091    -0.09810
C3708       C  0.38284042  0.06508108  0.46504395     0.29060
F3709       F  0.38695856  0.08767306  0.48165511    -0.20340
H3710       H  0.41248376  0.07920773  0.43483099     0.17430
H3711       H  0.34935159  0.00216513  0.46329590     0.17440
F3712       F  0.37423532  0.99403256  0.41582292    -0.20320
C3713       C  0.35454989  0.91498194  0.55172903    -0.21760
C3714       C  0.34371459  0.93772768  0.53652595    -0.09800
C3715       C  0.34477318  0.93706706  0.50723152     0.29060
C3716       C  0.35954149  0.91582439  0.49358575    -0.21760
C3717       C  0.37262859  0.89439463  0.50893433    -0.09810
C3718       C  0.36863043  0.89321672  0.53804058     0.29060
F3719       F  0.38131028  0.87301330  0.55355213    -0.20340
H3720       H  0.35478151  0.91558900  0.57436581     0.17430
H3721       H  0.36221347  0.91718752  0.47118284     0.17440
F3722       F  0.33468248  0.95889991  0.49206808    -0.20320
C3723       C  0.35871726  0.06681613  0.65198045    -0.21760
C3724       C  0.34547086  0.07879153  0.62837514    -0.09800
C3725       C  0.35482540  0.10543534  0.61974536     0.29060
C3726       C  0.37817862  0.11799335  0.63229214    -0.21760
C3727       C  0.39037942  0.10702327  0.65682879    -0.09810
C3728       C  0.38011006  0.08105257  0.66655378     0.29060
F3729       F  0.39078753  0.06923523  0.69007714    -0.20340
H3730       H  0.35253212  0.04627091  0.65923802     0.17430
H3731       H  0.38543701  0.13765611  0.62372102     0.17440
F3732       F  0.34197975  0.11927777  0.59849032    -0.20320
C3733       C  0.44184430  0.98754641  0.65305551    -0.21760
C3734       C  0.44336897  0.95831458  0.65432723    -0.09800
C3735       C  0.41985857  0.94246335  0.64679228     0.29060
C3736       C  0.39635097  0.95566129  0.63514893    -0.21760
C3737       C  0.39642498  0.98466772  0.63052624    -0.09810
C3738       C  0.41854102  0.00070972  0.64125000     0.29060
F3739       F  0.41894396  0.02886486  0.63753894    -0.20340
H3740       H  0.45997146  0.00001150  0.65828612     0.17430
H3741       H  0.37967816  0.94291445  0.62674119     0.17440
F3742       F  0.42113898  0.91410080  0.64715641    -0.20320
C3743       C  0.49748484  0.22145075  0.57002903    -0.21760
C3744       C  0.51552140  0.21898157  0.54681833    -0.09800
C3745       C  0.50893998  0.23470395  0.52266322     0.29060
C3746       C  0.48531033  0.25257073  0.52214520    -0.21760
C3747       C  0.46755043  0.25515747  0.54557999    -0.09810
C3748       C  0.47396448  0.23910247  0.56948291     0.29060
F3749       F  0.45740388  0.24036139  0.59250200    -0.20340
H3750       H  0.50129853  0.20925059  0.58876408     0.17430
H3751       H  0.48140545  0.26509789  0.50364161     0.17440
F3752       F  0.52555311  0.23324799  0.49971324    -0.20320
C3753       C  0.62786479  0.08721971  0.46891121    -0.21760
C3754       C  0.62027541  0.08526497  0.49722043    -0.09800
C3755       C  0.62763711  0.06125954  0.51244630     0.29060
C3756       C  0.63992296  0.03859905  0.49904592    -0.21760
C3757       C  0.64342156  0.03876793  0.46996191    -0.09810
C3758       C  0.63932357  0.06390593  0.45517308     0.29060
F3759       F  0.64270771  0.06474838  0.42703804    -0.20340
H3760       H  0.62205863  0.10551566  0.45681305     0.17430
H3761       H  0.64319784  0.01949616  0.51078930     0.17440
F3762       F  0.61953315  0.05818431  0.53940941    -0.20320
C3763       C  0.49557458  0.13518494  0.44905806    -0.21760
C3764       C  0.52443084  0.13254572  0.45401535    -0.09800
C3765       C  0.54154649  0.12054381  0.43339202     0.29060
C3766       C  0.52957163  0.10892151  0.40948355    -0.21760
C3767       C  0.50052014  0.10965085  0.40554192    -0.09810
C3768       C  0.48367256  0.12412258  0.42472407     0.29060
F3769       F  0.45547369  0.12478617  0.42147374    -0.20340
H3770       H  0.48203540  0.14386324  0.46500700     0.17430
H3771       H  0.54272438  0.09725046  0.39520242     0.17440
F3772       F  0.56927659  0.11660729  0.43813463    -0.20320
C3773       C  0.58016343  0.02572680  0.62413190    -0.21760
C3774       C  0.55574293  0.01726748  0.63784405    -0.09800
C3775       C  0.53398991  0.03651414  0.64213186     0.29060
C3776       C  0.53507518  0.06248801  0.62902582    -0.21760
C3777       C  0.55667849  0.06814833  0.61003603    -0.09810
C3778       C  0.58018430  0.05067662  0.60919799     0.29060
F3779       F  0.60210903  0.05670121  0.59238483    -0.20340
H3780       H  0.59773408  0.01158032  0.62196202     0.17430
H3781       H  0.51771967  0.07680645  0.63150165     0.17440
F3782       F  0.51070604  0.02919697  0.65664104    -0.20320
C3783       C  0.44189802  0.13266491  0.55953725    -0.21760
C3784       C  0.46518085  0.11877830  0.57085511    -0.09800
C3785       C  0.46167581  0.09301218  0.58455261     0.29060
C3786       C  0.43610600  0.07979459  0.58424688    -0.21760
C3787       C  0.41368139  0.09186938  0.57007986    -0.09810
C3788       C  0.41587172  0.11915737  0.55924179     0.29060
F3789       F  0.39396439  0.13120665  0.54572449    -0.20340
H3790       H  0.44443284  0.15237073  0.54860934     0.17430
H3791       H  0.43453121  0.05883539  0.59279489     0.17440
F3792       F  0.48392836  0.07869844  0.59476253    -0.20320
C3793       C  0.67204106  0.97769799  0.76350877    -0.21760
C3794       C  0.69743180  0.96883211  0.77572518    -0.09800
C3795       C  0.72247542  0.97748085  0.76264373     0.29060
C3796       C  0.72189553  0.99452948  0.73840659    -0.21760
C3797       C  0.69641927  0.00339202  0.72628004    -0.09810
C3798       C  0.67144168  0.99463504  0.73939674     0.29060
F3799       F  0.64616930  0.00251446  0.72906943    -0.20340
H3800       H  0.65229730  0.97114892  0.77245723     0.17430
H3801       H  0.74155194  0.00120359  0.72936952     0.17440
F3802       F  0.74760452  0.96899544  0.77282328    -0.20320
C3803       C  0.80038012  0.08751011  0.74903568    -0.21760
C3804       C  0.79670588  0.08165905  0.72051443    -0.09800
C3805       C  0.81824423  0.08924936  0.70182026     0.29060
C3806       C  0.84126194  0.10504313  0.71132166    -0.21760
C3807       C  0.84286170  0.11346902  0.73942431    -0.09810
C3808       C  0.82228583  0.10422273  0.75808762     0.29060
F3809       F  0.82119130  0.11415176  0.78442095    -0.20340
H3810       H  0.78415174  0.08231493  0.76399332     0.17430
H3811       H  0.85675859  0.11223618  0.69645274     0.17440
F3812       F  0.81574515  0.08387467  0.67412324    -0.20320
C3813       C  0.78719794  0.14320987  0.64061096    -0.21760
C3814       C  0.75879150  0.13789656  0.63614882    -0.09800
C3815       C  0.74435582  0.15277699  0.61529837     0.29060
C3816       C  0.75766681  0.17476146  0.60120036    -0.21760
C3817       C  0.78562973  0.18145279  0.60723838    -0.09810
C3818       C  0.80066829  0.16450873  0.62596144     0.29060
F3819       F  0.82711090  0.17132500  0.63335912    -0.20340
H3820       H  0.79850358  0.13207430  0.65679514     0.17430
H3821       H  0.74541917  0.18827947  0.58767662     0.17440
F3822       F  0.71671505  0.14819256  0.61087581    -0.20320
C3823       C  0.65600475  0.11810907  0.78345176    -0.21760
C3824       C  0.67486130  0.09553290  0.78370642    -0.09800
C3825       C  0.68959854  0.08896651  0.80810285     0.29060
C3826       C  0.68749665  0.10667260  0.83112685    -0.21760
C3827       C  0.67184889  0.13150143  0.82909183    -0.09810
C3828       C  0.65542161  0.13678567  0.80555808     0.29060
F3829       F  0.64085235  0.16106496  0.80293235    -0.20340
H3830       H  0.64492430  0.12368488  0.76448410     0.17430
H3831       H  0.70029764  0.10257904  0.84938250     0.17440
F3832       F  0.70847836  0.06770551  0.80837027    -0.20320
C3833       C  0.65563993  0.12940760  0.63044665    -0.21760
C3834       C  0.66105541  0.10145591  0.62237190    -0.09800
C3835       C  0.65344848  0.09370791  0.59517051     0.29060
C3836       C  0.63784148  0.11252443  0.57818360    -0.21760
C3837       C  0.62964210  0.13931177  0.58785086    -0.09810
C3838       C  0.63983114  0.14782139  0.61385857     0.29060
F3839       F  0.63210444  0.17296236  0.62451705    -0.20340
H3840       H  0.66193273  0.13649110  0.65087900     0.17430
H3841       H  0.62977697  0.10515851  0.55852834     0.17440
F3842       F  0.65862486  0.06736007  0.58607731    -0.20320
C3843       C  0.25621128  0.75766884  0.00837821    -0.21760
C3844       C  0.26452339  0.78337114  0.02006789    -0.09800
C3845       C  0.24796491  0.80719011  0.01379816     0.29060
C3846       C  0.22440717  0.80529187  0.99626720    -0.21760
C3847       C  0.21606346  0.77965119  0.98463315    -0.09810
C3848       C  0.23246194  0.75577917  0.99089502     0.29060
F3849       F  0.22624277  0.73071058  0.97926827    -0.20340
H3850       H  0.26804265  0.73884374  0.01291036     0.17430
H3851       H  0.21267809  0.82416269  0.99162517     0.17440
F3852       F  0.25420518  0.83251780  0.02484889    -0.20320
C3853       C  0.37811353  0.70174014  0.14828904    -0.21760
C3854       C  0.37472679  0.73091619  0.14880407    -0.09800
C3855       C  0.38786171  0.74631234  0.16989187     0.29060
C3856       C  0.40154214  0.73244411  0.19175971    -0.21760
C3857       C  0.40134685  0.70305329  0.19345545    -0.09810
C3858       C  0.39139625  0.68780328  0.17049467     0.29060
F3859       F  0.39031208  0.65948824  0.17168339    -0.20340
H3860       H  0.36783914  0.68955066  0.13230761     0.17430
H3861       H  0.40860354  0.74461036  0.20946119     0.17440
F3862       F  0.38442497  0.77445841  0.17125114    -0.20320
C3863       C  0.32210292  0.84047414  0.19151550    -0.21760
C3864       C  0.29860918  0.83980545  0.17414034    -0.09800
C3865       C  0.27487431  0.85591198  0.18058332     0.29060
C3866       C  0.27359513  0.86997372  0.20591011    -0.21760
C3867       C  0.29606303  0.86833195  0.22463629    -0.09810
C3868       C  0.32104402  0.85498629  0.21659879     0.29060
F3869       F  0.34319049  0.85313438  0.23427350    -0.20340
H3870       H  0.34065608  0.82844613  0.18639741     0.17430
H3871       H  0.25428074  0.88029649  0.21184184     0.17440
F3872       F  0.25187047  0.85558683  0.16394409    -0.20320
C3873       C  0.19976085  0.76761134  0.12971193    -0.21760
C3874       C  0.21284910  0.79083624  0.11766331    -0.09800
C3875       C  0.20101698  0.81760555  0.12048164     0.29060
C3876       C  0.17832826  0.82142538  0.13840145    -0.21760
C3877       C  0.16756020  0.79851201  0.15302408    -0.09810
C3878       C  0.17724800  0.77142764  0.14752394     0.29060
F3879       F  0.16608252  0.74891754  0.16076438    -0.20340
H3880       H  0.20891874  0.74692840  0.12778764     0.17430
H3881       H  0.17060537  0.84231090  0.14246493     0.17440
F3882       F  0.21367551  0.84033852  0.10912073    -0.20320
C3883       C  0.42315851  0.97784842  0.24141062    -0.21760
C3884       C  0.44864673  0.96450969  0.23487473    -0.09800
C3885       C  0.47342278  0.97622902  0.24577923     0.29060
C3886       C  0.47242155  0.00036068  0.26279771    -0.21760
C3887       C  0.44678415  0.01355339  0.26928525    -0.09810
C3888       C  0.42214503  0.00179785  0.25822825     0.29060
F3889       F  0.39677485  0.01338701  0.26370857    -0.20340
H3890       H  0.40368714  0.96994326  0.23305790     0.17430
H3891       H  0.49172281  0.00835728  0.27144719     0.17440
F3892       F  0.49868137  0.96482329  0.23954605    -0.20320
C3893       C  0.53403051  0.85778774  0.10203154    -0.21760
C3894       C  0.50578128  0.86569110  0.10236177    -0.09800
C3895       C  0.48798988  0.85687631  0.08091343     0.29060
C3896       C  0.49915963  0.84344354  0.05757675    -0.21760
C3897       C  0.52811190  0.83859536  0.05558036    -0.09810
C3898       C  0.54516539  0.84391165  0.07884306     0.29060
F3899       F  0.57315579  0.83937469  0.07755269    -0.20340
H3900       H  0.54785351  0.86419401  0.11870469     0.17430
H3901       H  0.48571842  0.83960853  0.03977380     0.17440
F3902       F  0.46048765  0.86407920  0.08110050    -0.20320
C3903       C  0.56945757  0.92912001  0.14114102    -0.21760
C3904       C  0.55564332  0.94515308  0.16147281    -0.09800
C3905       C  0.56579442  0.97224313  0.16705914     0.29060
C3906       C  0.58695737  0.98401203  0.15039645    -0.21760
C3907       C  0.59771249  0.96922617  0.12747344    -0.09810
C3908       C  0.58969375  0.94123518  0.12373280     0.29060
F3909       F  0.59989727  0.92625206  0.10194247    -0.20340
H3910       H  0.56165259  0.90859322  0.13588776     0.17430
H3911       H  0.59294229  0.00558503  0.15371741     0.17440
F3912       F  0.55248889  0.98867294  0.18598328    -0.20320
C3913       C  0.42251078  0.06081735  0.13041182    -0.21760
C3914       C  0.44336847  0.06988443  0.11203414    -0.09800
C3915       C  0.47107006  0.06131356  0.11613452     0.29060
C3916       C  0.47687273  0.03991096  0.13482431    -0.21760
C3917       C  0.45479165  0.02636290  0.14844125    -0.09810
C3918       C  0.42809943  0.03871107  0.14864516     0.29060
F3919       F  0.40659874  0.02673011  0.16278594    -0.20340
H3920       H  0.40161817  0.06921887  0.12916087     0.17430
H3921       H  0.49781810  0.03115871  0.13533195     0.17440
F3922       F  0.49222702  0.07257296  0.10107699    -0.20320
C3923       C  0.38720521  0.87889487  0.11462345    -0.21760
C3924       C  0.40388639  0.86819947  0.13674004    -0.09800
C3925       C  0.40698574  0.83885584  0.13821700     0.29060
C3926       C  0.39190583  0.82125827  0.11954582    -0.21760
C3927       C  0.37418233  0.83255401  0.09856796    -0.09810
C3928       C  0.37302876  0.86170825  0.09597426     0.29060
F3929       F  0.35580327  0.87381767  0.07682392    -0.20340
H3930       H  0.38433640  0.90115850  0.11171633     0.17430
H3931       H  0.39263483  0.79884076  0.12264172     0.17440
F3932       F  0.42352073  0.82717631  0.15812806    -0.20320
C3933       C  0.00227900  0.70854588  0.21561503    -0.21760
C3934       C  0.97420349  0.71618707  0.21255755    -0.09800
C3935       C  0.96739035  0.74510593  0.21222623     0.29060
C3936       C  0.98830108  0.76571885  0.21300079    -0.21760
C3937       C  0.01653500  0.75804452  0.21385099    -0.09810
C3938       C  0.02321818  0.72914943  0.21613482     0.29060
F3939       F  0.05026573  0.72069960  0.21819563    -0.20340
H3940       H  0.00815293  0.68665651  0.21618492     0.17430
H3941       H  0.98244947  0.78757297  0.21149181     0.17440
F3942       F  0.94031033  0.75350931  0.21044053    -0.20320
C3943       C  0.87738709  0.78407091  0.20851632    -0.21760
C3944       C  0.87125155  0.76399312  0.18827152    -0.09800
C3945       C  0.85513807  0.77113306  0.16481340     0.29060
C3946       C  0.84200161  0.79705273  0.16376237    -0.21760
C3947       C  0.84555751  0.81604349  0.18567856    -0.09810
C3948       C  0.86515889  0.81041647  0.20686622     0.29060
F3949       F  0.87027344  0.82911847  0.22749354    -0.20340
H3950       H  0.89017051  0.77874571  0.22647164     0.17430
H3951       H  0.82750407  0.80149480  0.14692722     0.17440
F3952       F  0.84927267  0.75194116  0.14481481    -0.20320
C3953       C  0.77575575  0.52723580  0.99277300    -0.21760
C3954       C  0.77000761  0.52959958  0.02175517    -0.09800
C3955       C  0.74191189  0.53025619  0.03010845     0.29060
C3956       C  0.72040076  0.53011368  0.00993132    -0.21760
C3957       C  0.72614220  0.52881882  0.98085276    -0.09810
C3958       C  0.75422070  0.52653346  0.97260867     0.29060
F3959       F  0.76098659  0.52526336  0.94510135    -0.20340
H3960       H  0.79725071  0.52656168  0.98560818     0.17430
H3961       H  0.69896537  0.53169928  0.01712752     0.17440
F3962       F  0.73522341  0.53279672  0.05754371    -0.20320
C3963       C  0.92538982  0.52200401  0.94600095    -0.21760
C3964       C  0.91523257  0.53980136  0.92532027    -0.09800
C3965       C  0.88956112  0.55367250  0.92860511     0.29060
C3966       C  0.87481431  0.55077972  0.95364771    -0.21760
C3967       C  0.88525117  0.53309268  0.97465848    -0.09810
C3968       C  0.91044707  0.51829353  0.97038677     0.29060
F3969       F  0.92176188  0.50162063  0.99048102    -0.20340
H3970       H  0.94501253  0.51091759  0.94319915     0.17430
H3971       H  0.85560764  0.56243791  0.95678294     0.17440
F3972       F  0.87933302  0.57042119  0.90804983    -0.20320
C3973       C  0.86411169  0.60607401  0.17001916    -0.21760
C3974       C  0.89319814  0.60711855  0.16471789    -0.09800
C3975       C  0.90356668  0.59183174  0.14207565     0.29060
C3976       C  0.88517519  0.57687309  0.12473527    -0.21760
C3977       C  0.85583210  0.57844966  0.12802616    -0.09810
C3978       C  0.84556727  0.59228821  0.15170715     0.29060
F3979       F  0.81775043  0.59224308  0.15722432    -0.20340
H3980       H  0.85557960  0.61718208  0.18770620     0.17430
H3981       H  0.89411714  0.56375199  0.10882745     0.17440
F3982       F  0.93149174  0.59087226  0.13707049    -0.20320
C3983       C  0.92658624  0.49683632  0.14131460    -0.21760
C3984       C  0.90311673  0.48249150  0.13110483    -0.09800
C3985       C  0.90163694  0.45333597  0.13484163     0.29060
C3986       C  0.92491210  0.43856991  0.14500572    -0.21760
C3987       C  0.94952664  0.45275878  0.15215590    -0.09810
C3988       C  0.94961804  0.48210420  0.15184965     0.29060
F3989       F  0.97338153  0.49627856  0.15800665    -0.20340
H3990       H  0.92824223  0.51926947  0.13846796     0.17430
H3991       H  0.92477741  0.41591835  0.14440687     0.17440
F3992       F  0.87950142  0.43876077  0.12486219    -0.20320
C3993       C  0.17385733  0.50229141  0.23994311    -0.21760
C3994       C  0.19825117  0.50640409  0.22395129    -0.09800
C3995       C  0.22316758  0.49349654  0.23353886     0.29060
C3996       C  0.22320337  0.47649568  0.25784213    -0.21760
C3997       C  0.19855421  0.47212219  0.27343939    -0.09810
C3998       C  0.17394238  0.48565954  0.26417158     0.29060
F3999       F  0.14957144  0.48258860  0.27841441    -0.20340
H4000       H  0.15444047  0.51235498  0.23391202     0.17430
H4001       H  0.24235675  0.46594662  0.26389584     0.17440
F4002       F  0.24754549  0.49721437  0.21949693    -0.20320
C4003       C  0.24923012  0.68445198  0.10438534    -0.21760
C4004       C  0.27835932  0.68741916  0.10165399    -0.09800
C4005       C  0.29588080  0.66540779  0.11035585     0.29060
C4006       C  0.28465014  0.64270960  0.12512205    -0.21760
C4007       C  0.25584863  0.64148994  0.13048306    -0.09810
C4008       C  0.23799205  0.66160349  0.11870080     0.29060
F4009       F  0.21003143  0.66070699  0.12361135    -0.20340
H4010       H  0.23542347  0.70141812  0.09824748     0.17430
H4011       H  0.29857917  0.62712497  0.13399738     0.17440
F4012       F  0.32405551  0.66773146  0.10807481    -0.20320
C4013       C  0.32042522  0.58687967  0.19733299    -0.21760
C4014       C  0.29974006  0.57707027  0.21571827    -0.09800
C4015       C  0.30526845  0.57737239  0.24470300     0.29060
C4016       C  0.32882982  0.59117896  0.25503924    -0.21760
C4017       C  0.34725249  0.60462646  0.23668929    -0.09810
C4018       C  0.34394599  0.60086985  0.20776332     0.29060
F4019       F  0.36178889  0.61333390  0.18960505    -0.20340
H4020       H  0.31658858  0.58721013  0.17502083     0.17430
H4021       H  0.33096431  0.59401905  0.27740464     0.17440
F4022       F  0.28579248  0.56801861  0.26314960    -0.20320
C4023       C  0.19986612  0.60963561  0.32793974    -0.21760
C4024       C  0.17717965  0.62820197  0.32898299    -0.09800
C4025       C  0.15618068  0.62731506  0.30878784     0.29060
C4026       C  0.15933335  0.60956839  0.28604820    -0.21760
C4027       C  0.18406351  0.59395678  0.28297099    -0.09810
C4028       C  0.20367822  0.59286710  0.30458470     0.29060
F4029       F  0.22794925  0.57838985  0.30147386    -0.20340
H4030       H  0.21584702  0.61002416  0.34396382     0.17430
H4031       H  0.14437326  0.61093621  0.26907871     0.17440
F4032       F  0.13400765  0.64508311  0.30996031    -0.20320
C4033       C  0.17336044  0.68910490  0.21988194    -0.21760
C4034       C  0.15852457  0.66624355  0.20949678    -0.09800
C4035       C  0.13019467  0.66911486  0.20219333     0.29060
C4036       C  0.11752551  0.69541444  0.20351619    -0.21760
C4037       C  0.13272175  0.71826103  0.21355395    -0.09810
C4038       C  0.16049912  0.71488685  0.22224885     0.29060
F4039       F  0.17573853  0.73694596  0.23143420    -0.20340
H4040       H  0.19510573  0.68703208  0.22596898     0.17430
H4041       H  0.09610550  0.69800495  0.19662958     0.17440
F4042       F  0.11524598  0.64695998  0.19283313    -0.20320
C4043       C  0.01092774  0.73370249  0.01397998    -0.21760
C4044       C  0.01920159  0.71868279  0.03806558    -0.09800
C4045       C  0.00125393  0.71993360  0.06160593     0.29060
C4046       C  0.97680566  0.73630348  0.06131155    -0.21760
C4047       C  0.96888935  0.75186327  0.03763493    -0.09810
C4048       C  0.98627837  0.75026270  0.01379820     0.29060
F4049       F  0.98056266  0.76626587  0.99101029    -0.20340
H4050       H  0.02382431  0.73305378  0.99538475     0.17430
H4051       H  0.96440011  0.73762569  0.08022100     0.17440
F4052       F  0.00720174  0.70539392  0.08529039    -0.20320
C4053       C  0.01257328  0.64976175  0.93179557    -0.21760
C4054       C  0.04121767  0.64574992  0.93702499    -0.09800
C4055       C  0.05764788  0.63189836  0.91704853     0.29060
C4056       C  0.04491624  0.61917223  0.89411633    -0.21760
C4057       C  0.01580820  0.62043112  0.89066642    -0.09810
C4058       C  0.99987476  0.63719622  0.90869129     0.29060
F4059       F  0.97162845  0.63810951  0.90631355    -0.20340
H4060       H  0.99947336  0.65963765  0.94741979     0.17430
H4061       H  0.05738612  0.60580958  0.88079082     0.17440
F4062       F  0.08506322  0.62652428  0.92220574    -0.20320
C4063       C  0.07782163  0.55011520  0.09233404    -0.21760
C4064       C  0.05311315  0.56436251  0.08589357    -0.09800
C4065       C  0.02726248  0.55446375  0.09542150     0.29060
C4066       C  0.02596414  0.52898258  0.10929877    -0.21760
C4067       C  0.05047893  0.51349946  0.11405295    -0.09810
C4068       C  0.07665028  0.52490741  0.10682714     0.29060
F4069       F  0.10086215  0.51079215  0.11168489    -0.20340
H4070       H  0.09785010  0.55808789  0.08534931     0.17430
H4071       H  0.00567105  0.52065182  0.11491745     0.17440
F4072       F  0.00314368  0.56824314  0.08921343    -0.20320
C4073       C  0.93192739  0.61124284  0.06812087    -0.21760
C4074       C  0.92359952  0.59158856  0.04818020    -0.09800
C4075       C  0.93607099  0.59141035  0.02170887     0.29060
C4076       C  0.95900272  0.60819337  0.01646567    -0.21760
C4077       C  0.97035008  0.62442573  0.03793741    -0.09810
C4078       C  0.95566217  0.62751520  0.06320391     0.29060
F4079       F  0.96607929  0.64337666  0.08421684    -0.20340
H4080       H  0.92146800  0.61242315  0.08811001     0.17430
H4081       H  0.96982814  0.60604962  0.99666509     0.17440
F4082       F  0.92702851  0.57388894  0.00142100    -0.20320
C4083       C  0.14620848  0.61890164  0.07447444    -0.21760
C4084       C  0.13174972  0.64267661  0.08462489    -0.09800
C4085       C  0.13394110  0.64863100  0.11309875     0.29060
C4086       C  0.14809494  0.63036982  0.13106425    -0.21760
C4087       C  0.15988355  0.60480246  0.12180577    -0.09810
C4088       C  0.16016482  0.59999727  0.09281704     0.29060
F4089       F  0.17206196  0.57642684  0.08246015    -0.20340
H4090       H  0.14468629  0.61389025  0.05256587     0.17430
H4091       H  0.14858777  0.63583371  0.15291354     0.17440
F4092       F  0.11997341  0.67079082  0.12409549    -0.20320
C4093       C  0.51237724  0.47616545  0.26030418    -0.21760
C4094       C  0.53728797  0.46184687  0.26722355    -0.09800
C4095       C  0.56261932  0.47270096  0.25659175     0.29060
C4096       C  0.56295025  0.49684795  0.23980456    -0.21760
C4097       C  0.53818462  0.51133758  0.23290449    -0.09810
C4098       C  0.51273187  0.50049469  0.24334642     0.29060
F4099       F  0.48807451  0.51300438  0.23676541    -0.20340
H4100       H  0.49259385  0.46889698  0.26857107     0.17430
H4101       H  0.58288849  0.50401967  0.23181875     0.17440
F4102       F  0.58739517  0.46004699  0.26249673    -0.20320
C4103       C  0.43358670  0.49447902  0.16528630    -0.21760
C4104       C  0.43679064  0.52372372  0.16484942    -0.09800
C4105       C  0.41430983  0.54021758  0.15527001     0.29060
C4106       C  0.39115776  0.52747664  0.14241141    -0.21760
C4107       C  0.39043573  0.49830459  0.13876984    -0.09810
C4108       C  0.41125765  0.48186100  0.15144779     0.29060
F4109       F  0.41234838  0.45390348  0.14683197    -0.20340
H4110       H  0.45079528  0.48131171  0.17212196     0.17430
H4111       H  0.37568515  0.54056587  0.13217849     0.17440
F4112       F  0.41680527  0.56845653  0.15403309    -0.20320
C4113       C  0.48642298  0.64456590  0.06227358    -0.21760
C4114       C  0.45774059  0.64286089  0.05583027    -0.09800
C4115       C  0.43986231  0.62964271  0.07502716     0.29060
C4116       C  0.45093910  0.61468719  0.09767705    -0.21760
C4117       C  0.47988095  0.61378746  0.10217751    -0.09810
C4118       C  0.49744801  0.63030945  0.08545710     0.29060
F4119       F  0.52556208  0.62982024  0.08943228    -0.20340
H4120       H  0.50071582  0.65420469  0.04756290     0.17430
H4121       H  0.43711764  0.60206100  0.11043684     0.17440
F4122       F  0.41222393  0.62748283  0.06953807    -0.20320
C4123       C  0.56657430  0.55023117  0.04895551    -0.21760
C4124       C  0.57880850  0.53862204  0.07294625    -0.09800
C4125       C  0.60676961  0.52909384  0.07207765     0.29060
C4126       C  0.62148122  0.52979736  0.04691954    -0.21760
C4127       C  0.60842748  0.54026042  0.02297303    -0.09810
C4128       C  0.58115839  0.55076624  0.02408480     0.29060
F4129       F  0.56786898  0.55964745  0.00062218    -0.20340
H4130       H  0.54523368  0.55791642  0.04904157     0.17430
H4131       H  0.64251128  0.52134997  0.04586083     0.17440
F4132       F  0.61956911  0.51842634  0.09509885    -0.20320
C4133       C  0.56937430  0.44526734  0.13401842    -0.21760
C4134       C  0.54187796  0.45382217  0.13986239    -0.09800
C4135       C  0.51924058  0.43757794  0.13112440     0.29060
C4136       C  0.52399261  0.41456311  0.11424820    -0.21760
C4137       C  0.55122310  0.40766764  0.10607869    -0.09810
C4138       C  0.57406865  0.42242540  0.11659852     0.29060
F4139       F  0.60030708  0.41703112  0.10727228    -0.20340
H4140       H  0.58690363  0.45836455  0.13975463     0.17430
H4141       H  0.50631145  0.40336047  0.10583043     0.17440
F4142       F  0.49253652  0.44607518  0.13595280    -0.20320
C4143       C  0.74201480  0.67048074  0.01927493    -0.21760
C4144       C  0.72250068  0.69266873  0.01947022    -0.09800
C4145       C  0.72779909  0.71585295  0.00190647     0.29060
C4146       C  0.75152350  0.71627245  0.98428165    -0.21760
C4147       C  0.77055646  0.69370679  0.98379644    -0.09810
C4148       C  0.76555788  0.67092344  0.00176905     0.29060
F4149       F  0.78329126  0.64868542  0.00200520    -0.20340
H4150       H  0.73919073  0.65259319  0.03292115     0.17430
H4151       H  0.75423140  0.73362344  0.96992100     0.17440
F4152       F  0.70967624  0.73773802  0.00109800    -0.20320
C4153       C  0.74435614  0.79244739  0.09636056    -0.21760
C4154       C  0.71521852  0.78998625  0.09338397    -0.09800
C4155       C  0.69830659  0.81354378  0.09852905     0.29060
C4156       C  0.70992719  0.83735314  0.11100844    -0.21760
C4157       C  0.73850743  0.83798407  0.11762814    -0.09810
C4158       C  0.75593525  0.81621043  0.10854049     0.29060
F4159       F  0.78363224  0.81636057  0.11475874    -0.20340
H4160       H  0.75780892  0.77459204  0.09245493     0.17430
H4161       H  0.69620052  0.85394729  0.11810048     0.17440
F4162       F  0.67017115  0.81207388  0.09534403    -0.20320
C4163       C  0.60230206  0.79125938  0.17448887    -0.21760
C4164       C  0.59037410  0.77349138  0.19459165    -0.09800
C4165       C  0.58983224  0.74449394  0.18952658     0.29060
C4166       C  0.60416140  0.73332472  0.16669407    -0.21760
C4167       C  0.61897143  0.75087863  0.14855228    -0.09810
C4168       C  0.61691461  0.77999440  0.15175846     0.29060
F4169       F  0.63140878  0.79734488  0.13464183    -0.20340
H4170       H  0.60358877  0.81353845  0.17832102     0.17430
H4171       H  0.60611213  0.71084417  0.16495997     0.17440
F4172       F  0.57890981  0.72672609  0.20883057    -0.20320
C4173       C  0.77514528  0.65690434  0.14323835    -0.21760
C4174       C  0.77344057  0.67356374  0.11920921    -0.09800
C4175       C  0.79762705  0.68505433  0.10739237     0.29060
C4176       C  0.82309656  0.68203363  0.12145657    -0.21760
C4177       C  0.82384876  0.66817480  0.14736800    -0.09810
C4178       C  0.80011350  0.65459767  0.15758037     0.29060
F4179       F  0.80041689  0.64167027  0.18288536    -0.20340
H4180       H  0.75643443  0.64821394  0.15255567     0.17430
H4181       H  0.84138748  0.69294123  0.11375396     0.17440
F4182       F  0.79602693  0.70163503  0.08436394    -0.20320
C4183       C  0.59574135  0.60300811  0.11232785    -0.21760
C4184       C  0.58206858  0.61296670  0.13664755    -0.09800
C4185       C  0.58126861  0.64218135  0.14043057     0.29060
C4186       C  0.59600744  0.66010796  0.12170945    -0.21760
C4187       C  0.61111751  0.64936105  0.09858113    -0.09810
C4188       C  0.60966902  0.62060062  0.09372240     0.29060
F4189       F  0.62453619  0.60896605  0.07250050    -0.20340
H4190       H  0.59683066  0.58092778  0.10791572     0.17430
H4191       H  0.59741044  0.68214073  0.12644252     0.17440
F4192       F  0.56800092  0.65322905  0.16290062    -0.20320
C4193       C  0.81082234  0.99749678  0.26097733    -0.21760
C4194       C  0.78597092  0.00255739  0.27606217    -0.09800
C4195       C  0.76106426  0.99074134  0.26551791     0.29060
C4196       C  0.76137799  0.97424246  0.24092842    -0.21760
C4197       C  0.78641622  0.96927145  0.22601809    -0.09810
C4198       C  0.81112341  0.98137292  0.23653279     0.29060
F4199       F  0.83591298  0.97767672  0.22316896    -0.20340
H4200       H  0.83036500  0.00658239  0.26781529     0.17430
H4201       H  0.74206984  0.96481268  0.23390240     0.17440
F4202       F  0.73635107  0.99532989  0.27869729    -0.20320
C4203       C  0.67880533  0.07491808  0.26054654    -0.21760
C4204       C  0.68418913  0.07442592  0.28942233    -0.09800
C4205       C  0.66336325  0.08414856  0.30777302     0.29060
C4206       C  0.63992435  0.09840777  0.29715119    -0.21760
C4207       C  0.63691015  0.10249960  0.26823139    -0.09810
C4208       C  0.65588773  0.08962120  0.24997458     0.29060
F4209       F  0.65498107  0.09510585  0.22217611    -0.20340
H4210       H  0.69475371  0.06795771  0.24600848     0.17430
H4211       H  0.62567996  0.10860349  0.31151823     0.17440
F4212       F  0.66777131  0.08383963  0.33575992    -0.20320
C4213       C  0.75050524  0.16157128  0.38080941    -0.21760
C4214       C  0.73305362  0.13922829  0.37376458    -0.09800
C4215       C  0.70514169  0.13941039  0.38300124     0.29060
C4216       C  0.69415884  0.16302955  0.39656928    -0.21760
C4217       C  0.71084424  0.18679102  0.40063663    -0.09810
C4218       C  0.73958854  0.18514641  0.39423143     0.29060
F4219       F  0.75642895  0.20760638  0.39818127    -0.20340
H4220       H  0.77209342  0.16171205  0.37391584     0.17430
H4221       H  0.67196607  0.16388255  0.40101966     0.17440
F4222       F  0.68790936  0.11788837  0.37668920    -0.20320
C4223       C  0.82867725  0.17513750  0.32421366    -0.21760
C4224       C  0.83253592  0.15777532  0.30095182    -0.09800
C4225       C  0.85459340  0.16297665  0.28229588     0.29060
C4226       C  0.87032193  0.18722737  0.28509297    -0.21760
C4227       C  0.86456900  0.20594682  0.30680377    -0.09810
C4228       C  0.84481312  0.19905030  0.32733678     0.29060
F4229       F  0.83878754  0.21702758  0.34843430    -0.20340
H4230       H  0.81231156  0.17084529  0.33928134     0.17430
H4231       H  0.88559044  0.19243224  0.26920638     0.17440
F4232       F  0.85934303  0.14608555  0.26006483    -0.20320
C4233       C  0.82484656  0.11661590  0.18705852    -0.21760
C4234       C  0.80347020  0.12033174  0.16772973    -0.09800
C4235       C  0.77834860  0.10545173  0.17057796     0.29060
C4236       C  0.77292594  0.09111073  0.19538789    -0.21760
C4237       C  0.79351042  0.08995815  0.21607128    -0.09810
C4238       C  0.82034066  0.10048530  0.21073529     0.29060
F4239       F  0.84075271  0.09893780  0.23037808    -0.20340
H4240       H  0.84395431  0.12821939  0.18516089     0.17430
H4241       H  0.75215081  0.08303494  0.19938854     0.17440
F4242       F  0.75796485  0.10760195  0.15094929    -0.20320
C4243       C  0.97667342  0.23296777  0.43319812    -0.21760
C4244       C  0.96903995  0.21869213  0.45773610    -0.09800
C4245       C  0.98547426  0.22301546  0.48187405     0.29060
C4246       C  0.00873947  0.24120298  0.48127055    -0.21760
C4247       C  0.01645631  0.25538622  0.45657491    -0.09810
C4248       C  0.99971256  0.25110277  0.43255196     0.29060
F4249       F  0.00524226  0.26468046  0.40821607    -0.20340
H4250       H  0.96483881  0.22985303  0.41416602     0.17430
H4251       H  0.02075403  0.24416062  0.50020080     0.17440
F4252       F  0.97990383  0.20866733  0.50574746    -0.20320
C4253       C  0.86940144  0.08149382  0.54307832    -0.21760
C4254       C  0.86826348  0.08642532  0.51419806    -0.09800
C4255       C  0.84907573  0.07134595  0.49801853     0.29060
C4256       C  0.83349431  0.04967344  0.51021048    -0.21760
C4257       C  0.83683863  0.04277136  0.53865331    -0.09810
C4258       C  0.85346424  0.06021188  0.55532042     0.29060
F4259       F  0.85799145  0.05369533  0.58251580    -0.20340
H4260       H  0.88418945  0.09273931  0.55586753     0.17430
H4261       H  0.82159146  0.03599442  0.49672282     0.17440
F4262       F  0.84805958  0.07505521  0.46992651    -0.20320
C4263       C  0.99613310  0.12333345  0.58471066    -0.21760
C4264       C  0.97766418  0.10711240  0.60063089    -0.09800
C4265       C  0.94876224  0.10983292  0.59634841     0.29060
C4266       C  0.93863046  0.12673649  0.57467735    -0.21760
C4267       C  0.95729698  0.13963025  0.55610915    -0.09810
C4268       C  0.98607299  0.13940480  0.56239996     0.29060
F4269       F  0.00466817  0.15151996  0.54467531    -0.20340
H4270       H  0.01850544  0.12141139  0.58779752     0.17430
H4271       H  0.91647466  0.12655051  0.57010342     0.17440
F4272       F  0.93050664  0.09441935  0.61157597    -0.20320
C4273       C  0.04309905  0.11194237  0.46803333    -0.21760
C4274       C  0.02637846  0.12074703  0.44573849    -0.09800
C4275       C  0.03333549  0.11309540  0.41823087     0.29060
C4276       C  0.05467062  0.09365711  0.41365605    -0.21760
C4277       C  0.06889512  0.08227750  0.43653716    -0.09810
C4278       C  0.06428604  0.09267667  0.46349101     0.29060
F4279       F  0.07909805  0.08288293  0.48566360    -0.20340
H4280       H  0.03768131  0.11751760  0.48930624     0.17430
H4281       H  0.05898717  0.08635984  0.39267487     0.17440
F4282       F  0.01719813  0.12144997  0.39638881    -0.20320
C4283       C  0.82668070  0.10246088  0.40127856    -0.21760
C4284       C  0.83535656  0.09667325  0.37362421    -0.09800
C4285       C  0.85853838  0.11210660  0.36324380     0.29060
C4286       C  0.87148656  0.13252359  0.37902565    -0.21760
C4287       C  0.86496356  0.13655426  0.40721371    -0.09810
C4288       C  0.84183406  0.12170842  0.41821224     0.29060
F4289       F  0.83455618  0.12503208  0.44538455    -0.20340
H4290       H  0.80854152  0.09198308  0.40982980     0.17430
H4291       H  0.88918844  0.14325651  0.36976346     0.17440
F4292       F  0.86959725  0.10747259  0.33748533    -0.20320
C4293       C  0.72252415  0.47484126  0.24325062    -0.21760
C4294       C  0.69710188  0.46787142  0.22997669    -0.09800
C4295       C  0.67230025  0.47954910  0.24070303     0.29060
C4296       C  0.67279857  0.49758014  0.26364729    -0.21760
C4297       C  0.69798180  0.50489419  0.27701564    -0.09810
C4298       C  0.72303428  0.49331203  0.26643750     0.29060
F4299       F  0.74795950  0.50046802  0.27785698    -0.20340
H4300       H  0.74186129  0.46531703  0.23623053     0.17430
H4301       H  0.65315318  0.50646141  0.27070341     0.17440
F4302       F  0.64721564  0.47310277  0.22912083    -0.20320
C4303       C  0.81858703  0.59205377  0.30011402    -0.21760
C4304       C  0.79510488  0.58475857  0.28414825    -0.09800
C4305       C  0.79630088  0.58724023  0.25499618     0.29060
C4306       C  0.81904875  0.60039577  0.24237303    -0.21760
C4307       C  0.84099019  0.61099319  0.25865887    -0.09810
C4308       C  0.84165713  0.60489532  0.28740461     0.29060
F4309       F  0.86264728  0.61466306  0.30369516    -0.20340
H4310       H  0.81771454  0.59081059  0.32271223     0.17430
H4311       H  0.81826557  0.60457436  0.22015031     0.17440
F4312       F  0.77376538  0.58054718  0.23918046    -0.20320
C4313       C  0.70283531  0.62134896  0.18014051    -0.21760
C4314       C  0.68402972  0.64363667  0.17619994    -0.09800
C4315       C  0.66318249  0.64882948  0.19620561     0.29060
C4316       C  0.66287498  0.63348669  0.22098685    -0.21760
C4317       C  0.68369723  0.61343988  0.22612815    -0.09810
C4318       C  0.70300751  0.60660062  0.20523471     0.29060
F4319       F  0.72305773  0.58696902  0.20985292    -0.20340
H4320       H  0.71866493  0.61661950  0.16465780     0.17430
H4321       H  0.64800991  0.63904189  0.23717314     0.17440
F4322       F  0.64404550  0.66953478  0.19239771    -0.20320
C4323       C  0.61576653  0.65822318  0.29963909    -0.21760
C4324       C  0.64017616  0.65909838  0.31594240    -0.09800
C4325       C  0.64724899  0.68303477  0.33070593     0.29060
C4326       C  0.63054834  0.70644989  0.32840389    -0.21760
C4327       C  0.60800497  0.70689900  0.30977490    -0.09810
C4328       C  0.59988145  0.68252394  0.29596796     0.29060
F4329       F  0.57894323  0.68310565  0.27683092    -0.20340
H4330       H  0.61072785  0.63970468  0.28768525     0.17430
H4331       H  0.63753891  0.72547500  0.33809980     0.17440
F4332       F  0.67178470  0.68466108  0.34488996    -0.20320
C4333       C  0.47769807  0.74166683  0.42976164    -0.21760
C4334       C  0.46801564  0.75325210  0.45494287    -0.09800
C4335       C  0.48263873  0.74612030  0.47967733     0.29060
C4336       C  0.50602133  0.72764525  0.47892932    -0.21760
C4337       C  0.51555291  0.71617469  0.45346760    -0.09810
C4338       C  0.50081429  0.72361058  0.42893193     0.29060
F4339       F  0.50888191  0.71343264  0.40370790    -0.20340
H4340       H  0.46773638  0.74741455  0.41021618     0.17430
H4341       H  0.51630236  0.72190557  0.49828495     0.17440
F4342       F  0.47516955  0.75795094  0.50431798    -0.20320
C4343       C  0.47301065  0.57079005  0.44359819    -0.21760
C4344       C  0.47291137  0.59985147  0.44033348    -0.09800
C4345       C  0.44780407  0.61442232  0.43652779     0.29060
C4346       C  0.42263723  0.59960794  0.43697983    -0.21760
C4347       C  0.42288486  0.57038816  0.44082851    -0.09810
C4348       C  0.44833686  0.55603749  0.44350140     0.29060
F4349       F  0.44940314  0.52797263  0.44790757    -0.20340
H4350       H  0.49240298  0.55949327  0.44712704     0.17430
H4351       H  0.40304827  0.61086957  0.43487202     0.17440
F4352       F  0.44758449  0.64270376  0.43401834    -0.20320
C4353       C  0.52269391  0.55865344  0.38587851    -0.21760
C4354       C  0.55028277  0.56766181  0.38908135    -0.09800
C4355       C  0.57078697  0.55841445  0.37026512     0.29060
C4356       C  0.56498436  0.53571750  0.35289212    -0.21760
C4357       C  0.53846965  0.52327361  0.35390358    -0.09810
C4358       C  0.51657510  0.53693825  0.36783700     0.29060
F4359       F  0.49031676  0.52615945  0.36775848    -0.20340
H4360       H  0.50614252  0.56742396  0.39846112     0.17430
H4361       H  0.58198456  0.52579432  0.34164995     0.17440
F4362       F  0.59672203  0.56954619  0.37027152    -0.20320
C4363       C  0.62547887  0.60275855  0.42004586    -0.21760
C4364       C  0.62715191  0.63189699  0.41536273    -0.09800
C4365       C  0.64772245  0.64144685  0.39690390     0.29060
C4366       C  0.66453608  0.62220322  0.38205431    -0.21760
C4367       C  0.66060652  0.59298250  0.38452429    -0.09810
C4368       C  0.64168862  0.58349776  0.40472929     0.29060
F4369       F  0.63810764  0.55565784  0.40897762    -0.20340
H4370       H  0.61052457  0.59464153  0.43467298     0.17430
H4371       H  0.67996399  0.63019687  0.36768899     0.17440
F4372       F  0.65155738  0.66930463  0.39345655    -0.20320
C4373       C  0.48616237  0.26530059  0.70486032    -0.21760
C4374       C  0.51393714  0.25807237  0.71052100    -0.09800
C4375       C  0.52009197  0.22944204  0.71582624     0.29060
C4376       C  0.49922886  0.20864005  0.71438196    -0.21760
C4377       C  0.47169186  0.21562776  0.70704642    -0.09810
C4378       C  0.46539223  0.24453234  0.70298088     0.29060
F4379       F  0.43900828  0.25295038  0.69663832    -0.20340
H4380       H  0.48073156  0.28687749  0.70044924     0.17430
H4381       H  0.50488126  0.18697825  0.71798674     0.17440
F4382       F  0.54669933  0.22142033  0.72180427    -0.20320
C4383       C  0.59724998  0.29423028  0.82811557    -0.21760
C4384       C  0.58807808  0.28011368  0.80412039    -0.09800
C4385       C  0.58895504  0.25080715  0.80374304     0.29060
C4386       C  0.60254837  0.23622594  0.82514147    -0.21760
C4387       C  0.61476143  0.25058861  0.84761267    -0.09810
C4388       C  0.61027583  0.27954588  0.84997314     0.29060
F4389       F  0.62184441  0.29409701  0.87132763    -0.20340
H4390       H  0.59715081  0.31686542  0.82854530     0.17430
H4391       H  0.60567074  0.21395408  0.82275124     0.17440
F4392       F  0.58069112  0.23664357  0.78063262    -0.20320
C4393       C  0.67927271  0.31607119  0.63850482    -0.21760
C4394       C  0.66722905  0.29311693  0.65193973    -0.09800
C4395       C  0.67664571  0.26591826  0.64651905     0.29060
C4396       C  0.69998564  0.26193706  0.62983289    -0.21760
C4397       C  0.71381836  0.28508463  0.61857825    -0.09810
C4398       C  0.70257313  0.31207583  0.62152934     0.29060
F4399       F  0.71626474  0.33473570  0.61126950    -0.20340
H4400       H  0.67203182  0.33706366  0.64288497     0.17430
H4401       H  0.70885788  0.24113394  0.62791936     0.17440
F4402       F  0.66439068  0.24346607  0.65886276    -0.20320
C4403       C  0.61484777  0.19274484  0.69933470    -0.21760
C4404       C  0.62861927  0.21501934  0.71229852    -0.09800
C4405       C  0.65525463  0.21122868  0.72399812     0.29060
C4406       C  0.66835177  0.18560913  0.72206071    -0.21760
C4407       C  0.65497487  0.16341065  0.70883504    -0.09810
C4408       C  0.62783891  0.16661567  0.69807932     0.29060
F4409       F  0.61461613  0.14502403  0.68539442    -0.20340
H4410       H  0.59438640  0.19571598  0.69004886     0.17430
H4411       H  0.68919501  0.18315881  0.73066236     0.17440
F4412       F  0.66943150  0.23279361  0.73570275    -0.20320
C4413       C  0.71505678  0.44588318  0.48960558    -0.21760
C4414       C  0.72170103  0.44501502  0.51852171    -0.09800
C4415       C  0.74998252  0.44656496  0.52601325     0.29060
C4416       C  0.77086665  0.44718863  0.50518437    -0.21760
C4417       C  0.76430728  0.44674170  0.47624371    -0.09810
C4418       C  0.73595882  0.44698137  0.46875132     0.29060
F4419       F  0.72842733  0.44652182  0.44142625    -0.20340
H4420       H  0.69338992  0.44499976  0.48304567     0.17430
H4421       H  0.79254153  0.44720052  0.51179378     0.17440
F4422       F  0.75758553  0.44568775  0.55331885    -0.20320
C4423       C  0.63760521  0.56066208  0.55144801    -0.21760
C4424       C  0.64734807  0.53721437  0.53673460    -0.09800
C4425       C  0.64821399  0.53821034  0.50744082     0.29060
C4426       C  0.63604547  0.56070967  0.49312695    -0.21760
C4427       C  0.62334422  0.58272157  0.50787262    -0.09810
C4428       C  0.62595646  0.58351778  0.53713087     0.29060
F4429       F  0.61366770  0.60430049  0.55204789    -0.20340
H4430       H  0.63611293  0.55991692  0.57403710     0.17430
H4431       H  0.63424369  0.55967221  0.47058833     0.17440
F4432       F  0.65718220  0.51566641  0.49274109    -0.20320
C4433       C  0.61652382  0.46066512  0.45664133    -0.21760
C4434       C  0.61443030  0.43639235  0.47302831    -0.09800
C4435       C  0.60132704  0.41246548  0.46239970     0.29060
C4436       C  0.58743887  0.41409558  0.43704216    -0.21760
C4437       C  0.58711852  0.43928359  0.42209182    -0.09810
C4438       C  0.60311082  0.46205369  0.43093740     0.29060
F4439       F  0.60332364  0.48641132  0.41625823    -0.20340
H4440       H  0.62686314  0.47910303  0.46459922     0.17430
H4441       H  0.57554294  0.39625510  0.42984012     0.17440
F4442       F  0.59913016  0.38867988  0.47783787    -0.20320
C4443       C  0.54515310  0.39922750  0.58285852    -0.21760
C4444       C  0.56807825  0.38652227  0.57022191    -0.09800
C4445       C  0.56641207  0.35864360  0.56103823     0.29060
C4446       C  0.54051396  0.34498454  0.56132005    -0.21760
C4447       C  0.51678955  0.35937537  0.57078793    -0.09810
C4448       C  0.51963648  0.38596399  0.58291195     0.29060
F4449       F  0.49698460  0.40087989  0.59117296    -0.20340
H4450       H  0.54638317  0.42057232  0.59034415     0.17430
H4451       H  0.53849569  0.32464950  0.55163861     0.17440
F4452       F  0.58880163  0.34598421  0.54899902    -0.20320
C4453       C  0.62688273  0.40376609  0.64971449    -0.21760
C4454       C  0.63919932  0.39236990  0.62544380    -0.09800
C4455       C  0.62952576  0.36586403  0.61676509     0.29060
C4456       C  0.60772273  0.35212287  0.63104299    -0.21760
C4457       C  0.59609273  0.36297962  0.65584322    -0.09810
C4458       C  0.60615695  0.38920329  0.66495841     0.29060
F4459       F  0.59611952  0.40088826  0.68875889    -0.20340
H4460       H  0.63318667  0.42423571  0.65693575     0.17430
H4461       H  0.60087668  0.33205741  0.62323919     0.17440
F4462       F  0.64089879  0.35307778  0.59415259    -0.20320
C4463       C  0.27207090  0.69324280  0.49204414    -0.21760
C4464       C  0.26450281  0.69649037  0.52007283    -0.09800
C4465       C  0.23575408  0.70056720  0.52633395     0.29060
C4466       C  0.21506219  0.69965447  0.50533718    -0.21760
C4467       C  0.22241971  0.69432535  0.47751933    -0.09810
C4468       C  0.25142063  0.69211734  0.47105731     0.29060
F4469       F  0.25994824  0.68819687  0.44428448    -0.20340
H4470       H  0.29381340  0.69007148  0.48650658     0.17430
H4471       H  0.19325163  0.70181981  0.51106777     0.17440
F4472       F  0.22756313  0.70468541  0.55316450    -0.20320
C4473       C  0.28844584  0.81209790  0.59913043    -0.21760
C4474       C  0.27485254  0.78665488  0.59408093    -0.09800
C4475       C  0.24567187  0.78526136  0.59677058     0.29060
C4476       C  0.23091324  0.80771210  0.60814219    -0.21760
C4477       C  0.24507338  0.83183445  0.61691690    -0.09810
C4478       C  0.27352649  0.83486644  0.61008459     0.29060
F4479       F  0.28766328  0.85824903  0.61743598    -0.20340
H4480       H  0.31101444  0.81333878  0.59757054     0.17430
H4481       H  0.20890894  0.80504734  0.61289073     0.17440
F4482       F  0.23209957  0.76075769  0.59238465    -0.20320
C4483       C  0.27225543  0.62489156  0.68011552    -0.21760
C4484       C  0.29898747  0.63453432  0.67314585    -0.09800
C4485       C  0.32205522  0.62806601  0.68986776     0.29060
C4486       C  0.31798533  0.61319917  0.71454984    -0.21760
C4487       C  0.29082269  0.60585335  0.72278231    -0.09810
C4488       C  0.26803154  0.61094372  0.70522031     0.29060
F4489       F  0.24163793  0.60444616  0.71341132    -0.20340
H4490       H  0.25441351  0.63000745  0.66709546     0.17430
H4491       H  0.33551149  0.60999422  0.72857590     0.17440
F4492       F  0.34769089  0.63861410  0.68388322    -0.20320
C4493       C  0.21959143  0.68016428  0.66437534    -0.21760
C4494       C  0.21836854  0.68188078  0.63526735    -0.09800
C4495       C  0.19288804  0.67952880  0.62125056     0.29060
C4496       C  0.16832081  0.67720733  0.63680198    -0.21760
C4497       C  0.16943918  0.67673131  0.66621801    -0.09810
C4498       C  0.19541613  0.67725657  0.67985977     0.29060
F4499       F  0.19752878  0.67664298  0.70815815    -0.20340
H4500       H  0.23939446  0.68171479  0.67524981     0.17430
H4501       H  0.14845580  0.67650940  0.62595351     0.17440
F4502       F  0.19170272  0.68053370  0.59294402    -0.20320
C4503       C  0.42398588  0.49339124  0.73961546    -0.21760
C4504       C  0.44782725  0.50946578  0.73309452    -0.09800
C4505       C  0.47356510  0.50095313  0.74491724     0.29060
C4506       C  0.47496321  0.47725791  0.76290681    -0.21760
C4507       C  0.45088219  0.46127360  0.76903076    -0.09810
C4508       C  0.42543143  0.46987414  0.75703256     0.29060
F4509       F  0.40146869  0.45588120  0.76298085    -0.20340
H4510       H  0.40384951  0.49882049  0.73069840     0.17430
H4511       H  0.49464131  0.47202136  0.77286679     0.17440
F4512       F  0.49736221  0.51502478  0.73865023    -0.20320
C4513       C  0.54673632  0.48888680  0.65515250    -0.21760
C4514       C  0.54468024  0.51813972  0.65559996    -0.09800
C4515       C  0.56794146  0.53404473  0.64711985     0.29060
C4516       C  0.59155372  0.52084946  0.63548848    -0.21760
C4517       C  0.59198875  0.49170571  0.63185845    -0.09810
C4518       C  0.57012329  0.47573411  0.64340776     0.29060
F4519       F  0.56986207  0.44751925  0.64028814    -0.20340
H4520       H  0.52883763  0.47626427  0.66091730     0.17430
H4521       H  0.60784986  0.53361242  0.62629544     0.17440
F4522       F  0.56627882  0.56237742  0.64655623    -0.20320
C4523       C  0.45000675  0.43712906  0.64144909    -0.21760
C4524       C  0.42947273  0.45731049  0.63607293    -0.09800
C4525       C  0.40461395  0.44970959  0.62251365     0.29060
C4526       C  0.40369434  0.42468541  0.60810954    -0.21760
C4527       C  0.42614455  0.40606904  0.60998714    -0.09810
C4528       C  0.44754686  0.41077922  0.62955448     0.29060
F4529       F  0.46763813  0.39131493  0.63467194    -0.20340
H4530       H  0.46863101  0.44234180  0.65320316     0.17430
H4531       H  0.38649817  0.42079932  0.59402807     0.17440
F4532       F  0.38275060  0.46769270  0.62024173    -0.20320
C4533       C  0.48331417  0.61511916  0.56945223    -0.21760
C4534       C  0.49867794  0.60821194  0.59352304    -0.09800
C4535       C  0.52653239  0.61730468  0.59578349     0.29060
C4536       C  0.53973524  0.62973245  0.57271385    -0.21760
C4537       C  0.52506708  0.63371223  0.54760613    -0.09810
C4538       C  0.49636835  0.62784402  0.54666566     0.29060
F4539       F  0.48187067  0.63111382  0.52246773    -0.20340
H4540       H  0.46175440  0.60850041  0.56740085     0.17430
H4541       H  0.56204505  0.63354248  0.57350917     0.17440
F4542       F  0.54191807  0.61103915  0.61880061    -0.20320
C4543       C  0.37893298  0.51823436  0.57103439    -0.21760
C4544       C  0.38917325  0.54428860  0.57917566    -0.09800
C4545       C  0.38194464  0.56843473  0.56417804     0.29060
C4546       C  0.36596250  0.56600516  0.53989060    -0.21760
C4547       C  0.35778335  0.53945320  0.53058993    -0.09810
C4548       C  0.36306373  0.51576581  0.54699234     0.29060
F4549       F  0.35567940  0.48991555  0.53798096    -0.20340
H4550       H  0.38500826  0.49951899  0.58213457     0.17430
H4551       H  0.36281342  0.58425937  0.52676210     0.17440
F4552       F  0.39317351  0.59351366  0.57096205    -0.20320
C4553       C  0.36131868  0.62077132  0.61613782    -0.21760
C4554       C  0.37137478  0.64554703  0.60387200    -0.09800
C4555       C  0.39787450  0.65512432  0.61286679     0.29060
C4556       C  0.41362570  0.63998591  0.63300328    -0.21760
C4557       C  0.40273542  0.61589187  0.64616120    -0.09810
C4558       C  0.37571430  0.60722587  0.63786872     0.29060
F4559       F  0.36305749  0.58506089  0.65030000    -0.20340
H4560       H  0.34144895  0.61218418  0.60969172     0.17430
H4561       H  0.43438185  0.64719996  0.63834374     0.17440
F4562       F  0.40874730  0.67901465  0.60208457    -0.20320
C4563       C  0.00846093  0.24211868  0.82339185    -0.21760
C4564       C  0.01172519  0.25972407  0.79981247    -0.09800
C4565       C  0.99688023  0.25256475  0.77538231     0.29060
C4566       C  0.97960467  0.22861088  0.77474927    -0.21760
C4567       C  0.97649294  0.21110758  0.79838893    -0.09810
C4568       C  0.99114422  0.21838427  0.82279656     0.29060
F4569       F  0.98905733  0.20230920  0.84613927    -0.20340
H4570       H  0.01983592  0.24638957  0.84246183     0.17430
H4571       H  0.96800913  0.22414421  0.75584970     0.17440
F4572       F  0.99909382  0.26856184  0.75201339    -0.20320
C4573       C  0.16958484  0.37981097  0.70149702    -0.21760
C4574       C  0.18827363  0.39226999  0.72029418    -0.09800
C4575       C  0.18163519  0.39255112  0.74896200     0.29060
C4576       C  0.15857771  0.37758330  0.75885162    -0.21760
C4577       C  0.14239042  0.36182645  0.74032455    -0.09810
C4578       C  0.14719124  0.36395033  0.71149151     0.29060
F4579       F  0.13184353  0.34869111  0.69326792    -0.20340
H4580       H  0.17441616  0.37917454  0.67938974     0.17430
H4581       H  0.15508444  0.37600400  0.78118807     0.17440
F4582       F  0.19931067  0.40443622  0.76764082    -0.20320
C4583       C  0.20117895  0.27747090  0.88014621    -0.21760
C4584       C  0.22160454  0.29644364  0.87147786    -0.09800
C4585       C  0.21573759  0.31597701  0.85039085     0.29060
C4586       C  0.19062261  0.31443711  0.83594052    -0.21760
C4587       C  0.17108429  0.29376811  0.84286569    -0.09810
C4588       C  0.17567702  0.27645200  0.86629185     0.29060
F4589       F  0.15659107  0.25714997  0.87450883    -0.20340
H4590       H  0.20571535  0.26228271  0.89640941     0.17430
H4591       H  0.18700686  0.32852610  0.81851185     0.17440
F4592       F  0.23549347  0.33426344  0.84157185    -0.20320
C4593       C  0.14045695  0.20627837  0.82735822    -0.21760
C4594       C  0.11434682  0.20665556  0.81414703    -0.09800
C4595       C  0.10116956  0.18167118  0.80683654     0.29060
C4596       C  0.11596374  0.15656658  0.80969575    -0.21760
C4597       C  0.14372565  0.15704330  0.81934323    -0.09810
C4598       C  0.15527614  0.18165143  0.82971278     0.29060
F4599       F  0.18200745  0.18240357  0.83920716    -0.20340
H4600       H  0.15076268  0.22556646  0.83296509     0.17430
H4601       H  0.10697791  0.13741509  0.80172709     0.17440
F4602       F  0.07579505  0.18192605  0.79414806    -0.20320
C4603       C  0.08388979  0.23850952  0.69614567    -0.21760
C4604       C  0.08276894  0.26779459  0.69908540    -0.09800
C4605       C  0.08923442  0.28444248  0.67565935     0.29060
C4606       C  0.10067015  0.27209829  0.65150545    -0.21760
C4607       C  0.10566205  0.24310472  0.65043905    -0.09810
C4608       C  0.09536175  0.22627722  0.67216429     0.29060
F4609       F  0.09967453  0.19822330  0.67173154    -0.20340
H4610       H  0.07912683  0.22515949  0.71385918     0.17430
H4611       H  0.10828036  0.28547972  0.63488757     0.17440
F4612       F  0.08838241  0.31272993  0.67754293    -0.20320
C4613       C  0.22890010  0.47009892  0.99308615    -0.21760
C4614       C  0.23266569  0.45074025  0.97114365    -0.09800
C4615       C  0.25338168  0.43009940  0.97443555     0.29060
C4616       C  0.26965150  0.42873313  0.99891806    -0.21760
C4617       C  0.26588851  0.44785212  0.02109684    -0.09810
C4618       C  0.24528230  0.46876212  0.01772392     0.29060
F4619       F  0.24020108  0.48720171  0.03862111    -0.20340
H4620       H  0.21239156  0.48561524  0.99163105     0.17430
H4621       H  0.28557496  0.41263816  0.00034936     0.17440
F4622       F  0.25796956  0.41119179  0.95383409    -0.20320
C4623       C  0.10184434  0.53416792  0.85946393    -0.21760
C4624       C  0.10315118  0.50532869  0.86495914    -0.09800
C4625       C  0.08332724  0.48759313  0.85284090     0.29060
C4626       C  0.06096797  0.49886234  0.83775128    -0.21760
C4627       C  0.05732854  0.52801922  0.83570905    -0.09810
C4628       C  0.07917211  0.54549643  0.84454207     0.29060
F4629       F  0.07644946  0.57368392  0.84266679    -0.20340
H4630       H  0.11696989  0.54810945  0.86882667     0.17430
H4631       H  0.04418607  0.48501934  0.83153722     0.17440
F4632       F  0.08339994  0.45981899  0.85883174    -0.20320
C4633       C  0.15781832  0.54921759  0.99029806    -0.21760
C4634       C  0.16022492  0.54735487  0.96108152    -0.09800
C4635       C  0.15387403  0.57109484  0.94481296     0.29060
C4636       C  0.14147357  0.59462646  0.95737460    -0.21760
C4637       C  0.13494425  0.59438768  0.98603382    -0.09810
C4638       C  0.14434943  0.57197289  0.00258223     0.29060
F4639       F  0.13668124  0.56991210  0.02980409    -0.20340
H4640       H  0.16226030  0.53106355  0.00321667     0.17430
H4641       H  0.13392586  0.61148616  0.94420156     0.17440
F4642       F  0.15538851  0.56987522  0.91652504    -0.20320
C4643       C  0.12555985  0.43656469  0.07114164    -0.21760
C4644       C  0.09999424  0.42216814  0.06996868    -0.09800
C4645       C  0.09117329  0.40986752  0.04510060     0.29060
C4646       C  0.10630483  0.41447555  0.02088914    -0.21760
C4647       C  0.12985350  0.43184678  0.02127960    -0.09810
C4648       C  0.14047949  0.44170338  0.04658055     0.29060
F4649       F  0.16333942  0.45844515  0.04709455    -0.20340
H4650       H  0.13243673  0.44610075  0.09045347     0.17430
H4651       H  0.09828838  0.40643263  0.00136179     0.17440
F4652       F  0.06682732  0.39536575  0.04386222    -0.20320
C4653       C  0.11101472  0.39137745  0.83196976    -0.21760
C4654       C  0.10862523  0.36318671  0.84084228    -0.09800
C4655       C  0.12897457  0.35376521  0.86049541     0.29060
C4656       C  0.15038039  0.37093980  0.87003601    -0.21760
C4657       C  0.15108433  0.39958967  0.86398911    -0.09810
C4658       C  0.13141550  0.40960409  0.84407503     0.29060
F4659       F  0.13100739  0.43716573  0.83737708    -0.20340
H4660       H  0.09659583  0.39956003  0.81652269     0.17430
H4661       H  0.16455384  0.36235260  0.88557380     0.17440
F4662       F  0.12798123  0.32783823  0.87207903    -0.20320
C4663       C  0.49832195  0.76424310  0.79308568    -0.21760
C4664       C  0.47008548  0.75679504  0.79380808    -0.09800
C4665       C  0.46336962  0.72789722  0.79269381     0.29060
C4666       C  0.48437029  0.70709153  0.79237069    -0.21760
C4667       C  0.51263669  0.71450795  0.79362856    -0.09810
C4668       C  0.51930535  0.74348143  0.79319852     0.29060
F4669       F  0.54639081  0.75186653  0.79364474    -0.20340
H4670       H  0.50420596  0.78607701  0.79392450     0.17430
H4671       H  0.47846770  0.68524680  0.79258679     0.17440
F4672       F  0.43622755  0.71968894  0.79264509    -0.20320
C4673       C  0.37923632  0.72465093  0.67783669    -0.21760
C4674       C  0.37110744  0.74135986  0.65495159    -0.09800
C4675       C  0.37759432  0.77001404  0.65523825     0.29060
C4676       C  0.38865420  0.78216512  0.67954110    -0.21760
C4677       C  0.39347188  0.76583020  0.70356524    -0.09810
C4678       C  0.39006844  0.73676433  0.70202951     0.29060
F4679       F  0.39377161  0.72059247  0.72513435    -0.20340
H4680       H  0.37431743  0.70253392  0.67813562     0.17430
H4681       H  0.39043562  0.80471800  0.68063083     0.17440
F4682       F  0.36963399  0.78682372  0.63373904    -0.20320
C4683       C  0.37154989  0.68967531  0.79588818    -0.21760
C4684       C  0.36550361  0.70931162  0.81655074    -0.09800
C4685       C  0.34648406  0.70307321  0.83797887     0.29060
C4686       C  0.33076911  0.67874707  0.83639889    -0.21760
C4687       C  0.33451715  0.66058432  0.81378206    -0.09810
C4688       C  0.35631198  0.66517091  0.79456613     0.29060
F4689       F  0.36096094  0.64759828  0.77280830    -0.20340
H4690       H  0.38621199  0.69450816  0.77929661     0.17430
H4691       H  0.31458653  0.67495871  0.85180930     0.17440
F4692       F  0.34047973  0.72206402  0.85816655    -0.20320
C4693       C  0.29459672  0.81701839  0.84713664    -0.21760
C4694       C  0.31820739  0.80313863  0.85729497    -0.09800
C4695       C  0.31716901  0.78851182  0.88277714     0.29060
C4696       C  0.29143423  0.78474439  0.89604634    -0.21760
C4697       C  0.26731457  0.79609272  0.88393185    -0.09810
C4698       C  0.26920416  0.81370908  0.86052956     0.29060
F4699       F  0.24597982  0.82522928  0.84889004    -0.20340
H4700       H  0.29534993  0.82839860  0.82751670     0.17430
H4701       H  0.28996735  0.77107079  0.91408565     0.17440
F4702       F  0.34015409  0.77509471  0.89279054    -0.20320
C4703       C  0.33536548  0.85771612  0.71151707    -0.21760
C4704       C  0.33603839  0.85894162  0.74076553    -0.09800
C4705       C  0.31535284  0.87459402  0.75480190     0.29060
C4706       C  0.29298830  0.88633230  0.74000550    -0.21760
C4707       C  0.29062899  0.88212272  0.71120831    -0.09810
C4708       C  0.31258086  0.86883787  0.69683792     0.29060
F4709       F  0.31032227  0.86365728  0.66909855    -0.20340
H4710       H  0.35079204  0.84543360  0.70032463     0.17430
H4711       H  0.27594485  0.89593020  0.75147908     0.17440
F4712       F  0.31534563  0.87674029  0.78297718    -0.20320
C4713       C  0.24962057  0.94813991  0.02990462    -0.21760
C4714       C  0.22191075  0.94420636  0.02160195    -0.09800
C4715       C  0.21592935  0.94323279  0.99251366     0.29060
C4716       C  0.23739851  0.94407802  0.97250687    -0.21760
C4717       C  0.26525968  0.94575906  0.98098502    -0.09810
C4718       C  0.27107592  0.94876314  0.00985782     0.29060
F4719       F  0.29782867  0.95157422  0.01875811    -0.20340
H4720       H  0.25482544  0.94942768  0.05188645     0.17430
H4721       H  0.23232193  0.94197646  0.95055878     0.17440
F4722       F  0.18918846  0.94087104  0.98330108    -0.20320
C4723       C  0.39894330  0.02644610  0.87532861    -0.21760
C4724       C  0.39483494  0.99751722  0.87398253    -0.09800
C4725       C  0.41274956  0.98127438  0.85717667     0.29060
C4726       C  0.43687170  0.99303643  0.84573850    -0.21760
C4727       C  0.44294020  0.02114101  0.85054140    -0.09810
C4728       C  0.42296557  0.03825345  0.86367826     0.29060
F4729       F  0.42860020  0.06556155  0.86864622    -0.20340
H4730       H  0.38549451  0.03929371  0.88828316     0.17430
H4731       H  0.45214472  0.97959905  0.83572583     0.17440
F4732       F  0.40835616  0.95360013  0.85373475    -0.20320
C4733       C  0.44394565  0.89931242  0.92559132    -0.21760
C4734       C  0.42109460  0.88874006  0.94019015    -0.09800
C4735       C  0.42252150  0.86233035  0.95311934     0.29060
C4736       C  0.44809410  0.84809655  0.95405415    -0.21760
C4737       C  0.47162514  0.86026393  0.94165578    -0.09810
C4738       C  0.46904703  0.88505475  0.92609871     0.29060
F4739       F  0.49165739  0.89708739  0.91399444    -0.20340
H4740       H  0.44281715  0.91949633  0.91524665     0.17430
H4741       H  0.45007295  0.82913777  0.96636734     0.17440
F4742       F  0.40018475  0.85187929  0.96717352    -0.20320
C4743       C  0.38542135  0.95158462  0.07572511    -0.21760
C4744       C  0.41328158  0.94205061  0.07540771    -0.09800
C4745       C  0.42353645  0.92771204  0.05188376     0.29060
C4746       C  0.40643556  0.92394652  0.02887272    -0.21760
C4747       C  0.37936030  0.93498699  0.02867814    -0.09810
C4748       C  0.36859941  0.94841330  0.05224310     0.29060
F4749       F  0.34242969  0.95940144  0.05211028    -0.20340
H4750       H  0.37691633  0.96223414  0.09378747     0.17430
H4751       H  0.41506805  0.91423073  0.01030675     0.17440
F4752       F  0.45035129  0.91836938  0.05046088    -0.20320
C4753       C  0.33887427  0.03753939  0.99978627    -0.21760
C4754       C  0.33711722  0.03835662  0.97056858    -0.09800
C4755       C  0.34353616  0.06339022  0.95651030     0.29060
C4756       C  0.35456978  0.08613951  0.97127459    -0.21760
C4757       C  0.35996991  0.08379474  0.00005675    -0.09810
C4758       C  0.35037180  0.05994871  0.01446057     0.29060
F4759       F  0.35508349  0.05692659  0.04225692    -0.20340
H4760       H  0.33467895  0.01820310  0.01090070     0.17430
H4761       H  0.36205571  0.10411066  0.95966015     0.17440
F4762       F  0.34272701  0.06446978  0.92817357    -0.20320
C4763       C  0.39792446  0.88482751  0.85980348    -0.21760
C4764       C  0.38710797  0.86646144  0.84001713    -0.09800
C4765       C  0.35776166  0.86606861  0.83645363     0.29060
C4766       C  0.33958626  0.88083900  0.85434947    -0.21760
C4767       C  0.35042067  0.89859241  0.87472332    -0.09810
C4768       C  0.37979886  0.90171153  0.87570813     0.29060
F4769       F  0.39113960  0.92184400  0.89148853    -0.20340
H4770       H  0.42033831  0.88677898  0.86235830     0.17430
H4771       H  0.31717292  0.87882896  0.85186586     0.17440
F4772       F  0.34654605  0.85073993  0.81589326    -0.20320
C4773       C  0.96243868  0.99059205  0.27451132    -0.21760
C4774       C  0.95537292  0.96250550  0.26833943    -0.09800
C4775       C  0.94750959  0.95619123  0.24091023     0.29060
C4776       C  0.94533156  0.97762656  0.22074929    -0.21760
C4777       C  0.95115125  0.00600026  0.22714414    -0.09810
C4778       C  0.96076663  0.01202110  0.25415802     0.29060
F4779       F  0.96694161  0.03869924  0.26139920    -0.20340
H4780       H  0.96832737  0.99614277  0.29563917     0.17430
H4781       H  0.93831575  0.97200823  0.19999569     0.17440
F4782       F  0.93994254  0.92975795  0.23407130    -0.20320
C4783       C  0.03410988  0.84748289  0.39804708    -0.21760
C4784       C  0.00493248  0.85082334  0.39846568    -0.09800
C4785       C  0.98975475  0.84000787  0.42128489     0.29060
C4786       C  0.00378167  0.82950596  0.44475079    -0.21760
C4787       C  0.03306135  0.82973343  0.44583954    -0.09810
C4788       C  0.04817344  0.83730671  0.42176237     0.29060
F4789       F  0.07653194  0.83809587  0.42242469    -0.20340
H4790       H  0.04621761  0.85596562  0.38088943     0.17430
H4791       H  0.99180559  0.82426607  0.46327071     0.17440
F4792       F  0.96149618  0.84282564  0.42227979    -0.20320
C4793       C  0.87062674  0.92940302  0.41987324    -0.21760
C4794       C  0.89751353  0.91753167  0.42215213    -0.09800
C4795       C  0.90745289  0.90807943  0.44785862     0.29060
C4796       C  0.89233610  0.91392554  0.47162858    -0.21760
C4797       C  0.86712198  0.92885244  0.46996192    -0.09810
C4798       C  0.85527153  0.93516465  0.44401826     0.29060
F4799       F  0.83069177  0.94932250  0.44223520    -0.20340
H4800       H  0.86282475  0.93662210  0.39984439     0.17430
H4801       H  0.90159995  0.90892343  0.49157388     0.17440
F4802       F  0.93295017  0.89566124  0.45021572    -0.20320
C4803       C  0.96482618  0.02864821  0.37612529    -0.21760
C4804       C  0.94525873  0.00784270  0.38210115    -0.09800
C4805       C  0.92348764  0.01288649  0.40113016     0.29060
C4806       C  0.92229432  0.03811486  0.41529573    -0.21760
C4807       C  0.94247074  0.05864754  0.41023656    -0.09810
C4808       C  0.96320246  0.05425674  0.38978371     0.29060
F4809       F  0.98291377  0.07388116  0.38431562    -0.20340
H4810       H  0.98170040  0.02474939  0.36150467     0.17430
H4811       H  0.90612125  0.04128637  0.43085481     0.17440
F4812       F  0.90473246  0.99260120  0.40765479    -0.20320
C4813       C  0.05257934  0.97197618  0.33628103    -0.21760
C4814       C  0.05028391  0.94305330  0.34054619    -0.09800
C4815       C  0.07336172  0.92831673  0.35146952     0.29060
C4816       C  0.09704693  0.94277443  0.36084890    -0.21760
C4817       C  0.09757617  0.97212400  0.36023545    -0.09810
C4818       C  0.07599318  0.98647994  0.34613174     0.29060
F4819       F  0.07586981  0.01486459  0.34519736    -0.20340
H4820       H  0.03481778  0.98377747  0.32848238     0.17430
H4821       H  0.11313609  0.93131406  0.37200618     0.17440
F4822       F  0.07147127  0.90042542  0.35645077    -0.20320
C4823       C  0.76849328  0.77530414  0.50723718    -0.21760
C4824       C  0.76134384  0.78054248  0.47929559    -0.09800
C4825       C  0.73236818  0.78256580  0.47268138     0.29060
C4826       C  0.71152832  0.78097279  0.49352463    -0.21760
C4827       C  0.71882280  0.77760374  0.52165089    -0.09810
C4828       C  0.74762096  0.77412646  0.52813442     0.29060
F4829       F  0.75569030  0.77025970  0.55506721    -0.20340
H4830       H  0.79027775  0.77336700  0.51313156     0.17430
H4831       H  0.68979555  0.78382456  0.48778360     0.17440
F4832       F  0.72402382  0.78660408  0.44585569    -0.20320
C4833       C  0.79439738  0.66436393  0.39645643    -0.21760
C4834       C  0.77834586  0.68758508  0.40475485    -0.09800
C4835       C  0.74910334  0.68613372  0.40282739     0.29060
C4836       C  0.73645496  0.66342038  0.38962755    -0.21760
C4837       C  0.75271995  0.64161613  0.37845929    -0.09810
C4838       C  0.78167521  0.64132533  0.38358294     0.29060
F4839       F  0.79805574  0.62080011  0.37276947    -0.20340
H4840       H  0.81702413  0.66548372  0.39693997     0.17430
H4841       H  0.71413256  0.66413974  0.38589233     0.17440
F4842       F  0.73311748  0.70852224  0.40998117    -0.20320
C4843       C  0.69605797  0.77489907  0.38084012    -0.21760
C4844       C  0.71596712  0.79485488  0.37313792    -0.09800
C4845       C  0.70933101  0.81583839  0.35377384     0.29060
C4846       C  0.68435563  0.81442436  0.33929467    -0.21760
C4847       C  0.66538850  0.79286136  0.34491477    -0.09810
C4848       C  0.67026013  0.77448371  0.36740964     0.29060
F4849       F  0.65115861  0.75507728  0.37518797    -0.20340
H4850       H  0.70100660  0.75897785  0.39624889     0.17430
H4851       H  0.68036842  0.82947403  0.32280274     0.17440
F4852       F  0.72825015  0.83573341  0.34656429    -0.20320
C4853       C  0.80188351  0.86613193  0.32462991    -0.21760
C4854       C  0.81163030  0.83838209  0.32552339    -0.09800
C4855       C  0.82285773  0.82589895  0.30168722     0.29060
C4856       C  0.82134732  0.83975555  0.27646444    -0.21760
C4857       C  0.80830937  0.86595412  0.27467257    -0.09810
C4858       C  0.80005101  0.88003813  0.29892258     0.29060
F4859       F  0.78747107  0.90547681  0.29734542    -0.20340
H4860       H  0.79322861  0.87583816  0.34315457     0.17430
H4861       H  0.82772650  0.82872824  0.25778997     0.17440
F4862       F  0.83258244  0.79919458  0.30225684    -0.20320
C4863       C  0.87668914  0.70380640  0.34884200    -0.21760
C4864       C  0.87223249  0.73283179  0.34863630    -0.09800
C4865       C  0.88318791  0.74878388  0.32642857     0.29060
C4866       C  0.89480553  0.73556541  0.30309517    -0.21760
C4867       C  0.89607884  0.70632118  0.30177602    -0.09810
C4868       C  0.88849211  0.69057278  0.32547012     0.29060
F4869       F  0.88921108  0.66223024  0.32460003    -0.20340
H4870       H  0.86815706  0.69109547  0.36556498     0.17430
H4871       H  0.90013243  0.74802897  0.28490449     0.17440
F4872       F  0.87997908  0.77699579  0.32605919    -0.20320
C4873       C  0.89530017  0.81788063  0.38419479    -0.21760
C4874       C  0.87088308  0.82995530  0.39576161    -0.09800
C4875       C  0.86272552  0.85636034  0.38504294     0.29060
C4876       C  0.87704555  0.86885944  0.36248270    -0.21760
C4877       C  0.90224812  0.85765967  0.35189330    -0.09810
C4878       C  0.91115659  0.83176636  0.36330571     0.29060
F4879       F  0.93522677  0.81968768  0.35429240    -0.20340
H4880       H  0.90224674  0.79750587  0.39135676     0.17430
H4881       H  0.86912208  0.88853756  0.35444571     0.17440
F4882       F  0.84039259  0.87014831  0.39590120    -0.20320
C4883       C  0.81590512  0.47652291  0.75650196    -0.21760
C4884       C  0.79110166  0.46882524  0.77038791    -0.09800
C4885       C  0.76557413  0.47894715  0.75939725     0.29060
C4886       C  0.76527522  0.49659092  0.73543350    -0.21760
C4887       C  0.79035216  0.50401366  0.72167110    -0.09810
C4888       C  0.81561327  0.49351516  0.73268034     0.29060
F4889       F  0.84042609  0.50027804  0.72062075    -0.20340
H4890       H  0.83589669  0.46861810  0.76378357     0.17430
H4891       H  0.74556639  0.50517276  0.72820055     0.17440
F4892       F  0.74098809  0.47111530  0.77117657    -0.20320
C4893       C  0.67182527  0.37825021  0.79958595    -0.21760
C4894       C  0.69292454  0.39075129  0.78345170    -0.09800
C4895       C  0.68766066  0.39663427  0.75518337     0.29060
C4896       C  0.66280942  0.38743121  0.74266929    -0.21760
C4897       C  0.64283160  0.37245870  0.75824039    -0.09810
C4898       C  0.64687350  0.36931739  0.78718516     0.29060
F4899       F  0.62884876  0.35371996  0.80258076    -0.20340
H4900       H  0.67585709  0.37282127  0.82122361     0.17430
H4901       H  0.66048847  0.38939127  0.72021990     0.17440
F4902       F  0.70788577  0.40821640  0.73899565    -0.20320
C4903       C  0.82832630  0.35125708  0.71194690    -0.21760
C4904       C  0.80504846  0.36720907  0.71962971    -0.09800
C4905       C  0.78311161  0.37169337  0.70064869     0.29060
C4906       C  0.78281822  0.35710008  0.67556866    -0.21760
C4907       C  0.80403077  0.33763790  0.67003339    -0.09810
C4908       C  0.82757895  0.33594258  0.68747291     0.29060
F4909       F  0.84882226  0.31788213  0.68192982    -0.20340
H4910       H  0.84543077  0.34779786  0.72642814     0.17430
H4911       H  0.76472935  0.35880970  0.66202851     0.17440
F4912       F  0.76077844  0.38781936  0.70767644    -0.20320
C4913       C  0.87354935  0.31265713  0.79821879    -0.21760
C4914       C  0.84864578  0.31428916  0.81363851    -0.09800
C4915       C  0.84089732  0.29248519  0.83149042     0.29060
C4916       C  0.85697547  0.26844582  0.83267289    -0.21760
C4917       C  0.87975069  0.26529756  0.81464770    -0.09810
C4918       C  0.88893727  0.28779141  0.79827328     0.29060
F4919       F  0.91057346  0.28456851  0.78017395    -0.20340
H4920       H  0.87953399  0.32953137  0.78429487     0.17430
H4921       H  0.84942192  0.25082367  0.84482500     0.17440
F4922       F  0.81647345  0.29326767  0.84573309    -0.20320
C4923       C  0.69870614  0.31127177  0.89586263    -0.21760
C4924       C  0.71347960  0.28614420  0.90011276    -0.09800
C4925       C  0.74207223  0.28510320  0.89396609     0.29060
C4926       C  0.75483292  0.30757300  0.88062079    -0.21760
C4927       C  0.73944808  0.33154799  0.87319491    -0.09810
C4928       C  0.71171348  0.33409708  0.88266583     0.29060
F4929       F  0.69624096  0.35701654  0.87604354    -0.20340
H4930       H  0.67640925  0.31212463  0.89981986     0.17430
H4931       H  0.77615429  0.30502724  0.87383924     0.17440
F4932       F  0.75660571  0.26081368  0.89703926    -0.20320
C4933       C  0.00429766  0.26237213  0.95959400    -0.21760
C4934       C  0.97516885  0.25754031  0.95720931    -0.09800
C4935       C  0.96602762  0.22974811  0.95614191     0.29060
C4936       C  0.98564364  0.20762770  0.95593173    -0.21760
C4937       C  0.01488342  0.21250328  0.95725606    -0.09810
C4938       C  0.02387686  0.24026746  0.95991024     0.29060
F4939       F  0.05157141  0.24622379  0.96121381    -0.20340
H4940       H  0.01204362  0.28362464  0.96051775     0.17430
H4941       H  0.97788033  0.18645334  0.95410459     0.17440
F4942       F  0.93838472  0.22399254  0.95355827    -0.20320
C4943       C  0.86633384  0.39122982  0.03361288    -0.21760
C4944       C  0.87297955  0.39505924  0.00525833    -0.09800
C4945       C  0.86382299  0.41955360  0.99159693     0.29060
C4946       C  0.85101586  0.44094146  0.00674386    -0.21760
C4947       C  0.84786338  0.43859689  0.03574881    -0.09810
C4948       C  0.85426509  0.41309262  0.04893592     0.29060
F4949       F  0.85204861  0.41060570  0.07710517    -0.20340
H4950       H  0.87337215  0.37265869  0.04460422     0.17430
H4951       H  0.84681320  0.46071412  0.99638120     0.17440
F4952       F  0.86970072  0.42407551  0.96423206    -0.20320
C4953       C  0.93093608  0.42007060  0.87643671    -0.21760
C4954       C  0.95225511  0.41226633  0.89503594    -0.09800
C4955       C  0.97854590  0.42487474  0.89320383     0.29060
C4956       C  0.98234601  0.44748495  0.87548604    -0.21760
C4957       C  0.95954982  0.45852441  0.86062764    -0.09810
C4958       C  0.93439758  0.44353946  0.85936401     0.29060
F4959       F  0.91219957  0.45355219  0.84470092    -0.20340
H4960       H  0.91101821  0.40946760  0.87672903     0.17430
H4961       H  0.00208498  0.45857254  0.87614867     0.17440
F4962       F  0.00008477  0.41628331  0.90959842    -0.20320
C4963       C  0.03050601  0.39668875  0.96433136    -0.21760
C4964       C  0.02702513  0.37160277  0.94958325    -0.09800
C4965       C  0.04752099  0.36281652  0.93049048     0.29060
C4966       C  0.07141684  0.37914917  0.92654225    -0.21760
C4967       C  0.07389337  0.40469804  0.94061770    -0.09810
C4968       C  0.05343903  0.41337945  0.95948285     0.29060
F4969       F  0.05597575  0.43780260  0.97368191    -0.20340
H4970       H  0.01469498  0.40423830  0.97870771     0.17430
H4971       H  0.08766580  0.37222251  0.91234251     0.17440
F4972       F  0.04443980  0.33872015  0.91592746    -0.20320
C4973       C  0.99168714  0.33174594  0.05272761    -0.21760
C4974       C  0.96249429  0.33390653  0.05109552    -0.09800
C4975       C  0.94752779  0.34379165  0.07437947     0.29060
C4976       C  0.96181821  0.35425618  0.09767137    -0.21760
C4977       C  0.99112913  0.35561318  0.09756013    -0.09810
C4978       C  0.00598768  0.34266036  0.07571902     0.29060
F4979       F  0.03436038  0.34375951  0.07499825    -0.20340
H4980       H  0.00358605  0.32487655  0.03471419     0.17430
H4981       H  0.94999839  0.36460837  0.11398580     0.17440
F4982       F  0.91933024  0.34686706  0.07297152    -0.20320
C4983       C  0.84875545  0.33657382  0.89345447    -0.21760
C4984       C  0.87122328  0.34736988  0.90865634    -0.09800
C4985       C  0.87334966  0.37687588  0.91028393     0.29060
C4986       C  0.85618180  0.39476388  0.89426205    -0.21760
C4987       C  0.83441081  0.38390422  0.87827097    -0.09810
C4988       C  0.83014806  0.35470222  0.87928499     0.29060
F4989       F  0.80825681  0.34359993  0.86573013    -0.20340
H4990       H  0.84535429  0.31420884  0.89285357     0.17430
H4991       H  0.85958146  0.41713884  0.89483240     0.17440
F4992       F  0.89157317  0.38875629  0.92799109    -0.20320
loop_ 
_geom_bond_atom_site_label_1 
_geom_bond_atom_site_label_2 
_geom_bond_distance 
_geom_bond_site_symmetry_2 
_ccdc_geom_bond_type 
O1           C16   1.258       .  A
O1           Al9   1.861       .  S
C2           O12   1.260       .  A
C2            O3   1.272       .  A
C2         C4984   1.508       .  S
O3           Al5   1.934       .  S
O4            C6   1.249       .  A
O4           Al5   1.859       .  S
Al5          O13   1.855       .  S
Al5          O15   1.936       .  S
Al5          O14   1.787       .  S
C6           O19   1.264       .  A
C6         C4954   1.452       .  S
O7           C17   1.264       .  A
O7           Al9   1.883       .  S
O8           C21   1.265       .  A
O8          Al18   1.925   1_554  S
Al9          O22   1.909   1_556  S
Al9          O19   1.932       .  S
Al9          O14   1.755       .  S
O10          C17   1.274       .  A
O10         Al18   1.958       .  S
O11          C20   1.277       .  A
O11         Al18   1.990       .  S
O12         Al18   1.916       .  S
O13          C20   1.248       .  A
O14         Al18   1.783       .  S
O15          C16   1.269       .  A
C16        C4964   1.455   1_655  S
C17        C4944   1.477   1_556  S
C20        C4934   1.502       .  S
C21          O22   1.261       .  A
C21        C4974   1.469       .  S
O23          C38   1.259       .  A
O23         Al31   1.873       .  S
C24          O34   1.260       .  A
C24          O25   1.260       .  A
C24        C4987   1.504       .  S
O25         Al27   1.909       .  S
O26          C28   1.251       .  A
O26         Al27   1.858       .  S
Al27         O35   1.833       .  S
Al27         O37   1.902       .  S
Al27         O36   1.803       .  S
C28          O41   1.264       .  A
C28        C4914   1.447       .  S
O29          C39   1.262       .  A
O29         Al31   1.873       .  S
O30          C43   1.262       .  A
O30         Al40   1.922       .  S
Al31         O44   1.905       .  S
Al31         O41   1.924       .  S
Al31         O36   1.760       .  S
O32          C39   1.271       .  A
O32         Al40   1.957       .  S
O33          C42   1.281       .  A
O33         Al40   1.997       .  S
O34         Al40   1.936       .  S
O35          C42   1.249       .  A
O36         Al40   1.783       .  S
O37          C38   1.262       .  A
C38        C4904   1.447       .  S
C39        C4927   1.480       .  S
C42        C4884   1.501       .  S
C43          O44   1.259       .  A
C43        C4894   1.474       .  S
O45          C60   1.260       .  A
O45         Al53   1.882       .  S
C46          O56   1.263       .  A
C46          O47   1.264       .  A
C46        C4874   1.525       .  S
O47         Al49   1.907       .  S
O48          C50   1.249       .  A
O48         Al49   1.862       .  S
Al49         O57   1.859       .  S
Al49         O59   1.895       .  S
Al49         O58   1.794       .  S
C50          O63   1.260       .  A
C50        C4854   1.446       .  S
O51          C61   1.259       .  A
O51         Al53   1.875       .  S
O52          C65   1.265       .  A
O52         Al62   1.930       .  S
Al53         O66   1.890       .  S
Al53         O63   1.897       .  S
Al53         O58   1.756       .  S
O54          C61   1.272       .  A
O54         Al62   1.963       .  S
O55          C64   1.282       .  A
O55         Al62   2.001       .  S
O56         Al62   1.946       .  S
O57          C64   1.252       .  A
O58         Al62   1.786       .  S
O59          C60   1.260       .  A
C60        C4844   1.443       .  S
C61        C4864   1.478       .  S
C64        C4824   1.512       .  S
C65          O66   1.257       .  A
C65        C4834   1.469       .  S
O67          C82   1.260       .  A
O67         Al75   1.889       .  S
C68          O78   1.264       .  A
C68          O69   1.267       .  A
C68        C4877   1.526       .  S
O69         Al71   1.915       .  S
O70          C72   1.247       .  A
O70         Al71   1.846       .  S
Al71         O79   1.857       .  S
Al71         O81   1.892       .  S
Al71         O80   1.789       .  S
C72          O85   1.263       .  A
C72        C4794   1.443       .  S
O73          C83   1.256       .  A
O73         Al75   1.871       .  S
O74          C87   1.267       .  A
O74         Al84   1.928   1_455  S
Al75         O88   1.909   1_655  S
Al75         O85   1.905       .  S
Al75         O80   1.756       .  S
O76          C83   1.271       .  A
O76         Al84   1.965       .  S
O77          C86   1.282       .  A
O77         Al84   2.002       .  S
O78         Al84   1.950       .  S
O79          C86   1.251       .  A
O80         Al84   1.786       .  S
O81          C82   1.259       .  A
C82        C4804   1.448   1_565  S
C83        C4784   1.477   1_655  S
C86        C4774   1.499       .  S
C87          O88   1.263       .  A
C87        C4814   1.474       .  S
O89         C104   1.257   1_556  A
O89         Al97   1.873       .  S
C90         O100   1.261       .  A
C90          O91   1.270       .  A
C90        C4767   1.504       .  S
O91         Al93   1.929       .  S
O92          C94   1.252       .  A
O92         Al93   1.852       .  S
Al93        O101   1.847       .  S
Al93        O103   1.909       .  S
Al93        O102   1.795       .  S
C94         O107   1.264       .  A
C94        C4734   1.445       .  S
O95         C105   1.260       .  A
O95         Al97   1.883       .  S
O96         C109   1.266   1_565  A
O96        Al106   1.926       .  S
Al97        O110   1.902   1_565  S
Al97        O107   1.911       .  S
Al97        O102   1.754       .  S
O98         C105   1.267       .  A
O98        Al106   1.946       .  S
O99         C108   1.273       .  A
O99        Al106   1.973       .  S
O100       Al106   1.920       .  S
O101        C108   1.248       .  A
O102       Al106   1.791       .  S
O103        C104   1.261   1_556  A
C104       C4747   1.440       .  S
C105       C4724   1.469       .  S
C108       C4717   1.488       .  S
C109        O110   1.261       .  A
C109       C4754   1.468       .  S
O111        C126   1.258       .  A
O111       Al119   1.869       .  S
C112        O122   1.260       .  A
C112        O113   1.265       .  A
C112       C4764   1.503       .  S
O113       Al115   1.917       .  S
O114        C116   1.254       .  A
O114       Al115   1.863       .  S
Al115       O123   1.857       .  S
Al115       O125   1.895       .  S
Al115       O124   1.806       .  S
C116        O129   1.264       .  A
C116       C4694   1.445       .  S
O117        C127   1.260       .  A
O117       Al119   1.888       .  S
O118        C131   1.264       .  A
O118       Al128   1.921       .  S
Al119       O132   1.901       .  S
Al119       O129   1.906       .  S
Al119       O124   1.756       .  S
O120        C127   1.268       .  A
O120       Al128   1.947       .  S
O121        C130   1.279       .  A
O121       Al128   1.990       .  S
O122       Al128   1.928       .  S
O123        C130   1.250       .  A
O124       Al128   1.790       .  S
O125        C126   1.257       .  A
C126       C4684   1.441       .  S
C127       C4704   1.476       .  S
C130       C4664   1.501       .  S
C131        O132   1.261       .  A
C131       C4677   1.471       .  S
O133        C148   1.258       .  A
O133       Al141   1.853       .  S
C134        O144   1.249       .  A
C134        O135   1.284       .  A
C134       C4657   1.508       .  S
O135       Al137   2.005       .  S
O136        C138   1.255       .  A
O136       Al137   1.901       .  S
Al137       O145   1.950       .  S
Al137       O147   1.974       .  S
Al137       O146   1.771       .  S
C138        O151   1.259       .  A
C138       C4624   1.470       .  S
O139        C149   1.262       .  A
O139       Al141   1.881       .  S
O140        C153   1.257       .  A
O140       Al150   1.891       .  S
Al141       O154   1.903       .  S
Al141       O151   1.917       .  S
Al141       O146   1.761       .  S
O142        C149   1.262       .  A
O142       Al150   1.902       .  S
O143        C152   1.255       .  A
O143       Al150   1.905       .  S
O144       Al150   1.816       .  S
O145        C152   1.262       .  A
O146       Al150   1.796       .  S
O147        C148   1.276       .  A
C148       C4634   1.478       .  S
C149       C4967   1.440       .  S
C152       C4614   1.502       .  S
C153        O154   1.263       .  A
C153       C4647   1.446   1_556  S
O155        C170   1.259       .  A
O155       Al163   1.862       .  S
C156        O166   1.250       .  A
C156        O157   1.286       .  A
C156       C4654   1.531       .  S
O157       Al159   2.002       .  S
O158        C160   1.251       .  A
O158       Al159   1.891       .  S
Al159       O167   1.961       .  S
Al159       O169   1.988       .  S
Al159       O168   1.765       .  S
C160        O173   1.257       .  A
C160       C4577   1.464       .  S
O161        C171   1.264       .  A
O161       Al163   1.886       .  S
O162        C175   1.257       .  A
O162       Al172   1.892       .  S
Al163       O176   1.890       .  S
Al163       O173   1.912       .  S
Al163       O168   1.761       .  S
O164        C171   1.264       .  A
O164       Al172   1.911       .  S
O165        C174   1.252       .  A
O165       Al172   1.888       .  S
O166       Al172   1.831       .  S
O167        C174   1.265       .  A
O168       Al172   1.803       .  S
O169        C170   1.280       .  A
C170       C4604   1.486       .  S
C171       C4587   1.460       .  S
C174       C4564   1.512       .  S
C175        O176   1.263       .  A
C175       C4594   1.445       .  S
O177        C192   1.265       .  A
O177       Al185   1.896       .  S
C178        O188   1.262       .  A
C178        O179   1.253       .  A
C178       C4557   1.517       .  S
O179       Al181   1.888       .  S
O180        C182   1.254       .  A
O180       Al181   1.885       .  S
Al181       O189   1.838       .  S
Al181       O191   1.886       .  S
Al181       O190   1.792       .  S
C182        O195   1.261       .  A
C182       C4544   1.449       .  S
O183        C193   1.263       .  A
O183       Al185   1.882       .  S
O184        C197   1.264       .  A
O184       Al194   1.932       .  S
Al185       O198   1.890       .  S
Al185       O195   1.912       .  S
Al185       O190   1.759       .  S
O186        C193   1.271       .  A
O186       Al194   1.943       .  S
O187        C196   1.284       .  A
O187       Al194   2.002       .  S
O188       Al194   1.962       .  S
O189        C196   1.252       .  A
O190       Al194   1.781       .  S
O191        C192   1.259       .  A
C192       C4524   1.450       .  S
C193       C4534   1.475       .  S
C196       C4504   1.506       .  S
C197        O198   1.256       .  A
C197       C4514   1.476       .  S
O199        C214   1.260       .  A
O199       Al207   1.876       .  S
C200        O210   1.261       .  A
C200        O201   1.268       .  A
C200       C4554   1.515       .  S
O201       Al203   1.918       .  S
O202        C204   1.250       .  A
O202       Al203   1.869       .  S
Al203       O211   1.856       .  S
Al203       O213   1.912       .  S
Al203       O212   1.783       .  S
C204        O217   1.258       .  A
C204       C4484   1.439       .  S
O205        C215   1.257       .  A
O205       Al207   1.864       .  S
O206        C219   1.262       .  A
O206       Al216   1.917       .  S
Al207       O220   1.901       .  S
Al207       O217   1.901       .  S
Al207       O212   1.756       .  S
O208        C215   1.275       .  A
O208       Al216   1.976       .  S
O209        C218   1.281       .  A
O209       Al216   1.997       .  S
O210       Al216   1.931       .  S
O211        C218   1.251       .  A
O212       Al216   1.785       .  S
O213        C214   1.262       .  A
C214       C4494   1.440       .  S
C215       C4674   1.480       .  S
C218       C4464   1.501       .  S
C219        O220   1.260       .  A
C219       C4474   1.464       .  S
O221        C236   1.259       .  A
O221       Al229   1.874       .  S
C222        O232   1.264       .  A
C222        O223   1.266       .  A
C222       C4454   1.519       .  S
O223       Al225   1.910       .  S
O224        C226   1.249       .  A
O224       Al225   1.862       .  S
Al225       O233   1.861       .  S
Al225       O235   1.896       .  S
Al225       O234   1.791       .  S
C226        O239   1.262       .  A
C226       C4444   1.451       .  S
O227        C237   1.258       .  A
O227       Al229   1.874       .  S
O228        C241   1.265       .  A
O228       Al238   1.923       .  S
Al229       O242   1.903       .  S
Al229       O239   1.903       .  S
Al229       O234   1.754       .  S
O230        C237   1.273       .  A
O230       Al238   1.975       .  S
O231        C240   1.281       .  A
O231       Al238   1.999       .  S
O232       Al238   1.938       .  S
O233        C240   1.251       .  A
O234       Al238   1.786       .  S
O235        C236   1.261       .  A
C236       C4434   1.450       .  S
C237       C4517   1.482       .  S
C240       C4414   1.507       .  S
C241        O242   1.261       .  A
C241       C4424   1.467       .  S
O243        C258   1.259       .  A
O243       Al251   1.860       .  S
C244        O254   1.265       .  A
C244        O245   1.269       .  A
C244       C4457   1.517       .  S
O245       Al247   1.918       .  S
O246        C248   1.247       .  A
O246       Al247   1.863       .  S
Al247       O255   1.852       .  S
Al247       O257   1.919       .  S
Al247       O256   1.776       .  S
C248        O261   1.259       .  A
C248       C4394   1.440       .  S
O249        C259   1.258       .  A
O249       Al251   1.874       .  S
O250        C263   1.266       .  A
O250       Al260   1.926       .  S
Al251       O264   1.912       .  S
Al251       O261   1.911       .  S
Al251       O256   1.754       .  S
O252        C259   1.278       .  A
O252       Al260   1.986       .  S
O253        C262   1.281       .  A
O253       Al260   2.006       .  S
O254       Al260   1.934       .  S
O255        C262   1.248       .  A
O256       Al260   1.778       .  S
O257        C258   1.267       .  A
C258       C4404   1.445       .  S
C259       C4897   1.476       .  S
C262       C4374   1.504       .  S
C263        O264   1.262       .  A
C263       C4384   1.466       .  S
O265        C280   1.258       .  A
O265       Al273   1.857       .  S
C266        O276   1.260       .  A
C266        O267   1.268       .  A
C266       C4364   1.506       .  S
O267       Al269   1.917       .  S
O268        C270   1.248       .  A
O268       Al269   1.874       .  S
Al269       O277   1.850       .  S
Al269       O279   1.938       .  S
Al269       O278   1.791       .  S
C270        O283   1.264       .  A
C270       C4354   1.459       .  S
O271        C281   1.264       .  A
O271       Al273   1.880       .  S
O272        C285   1.262       .  A
O272       Al282   1.916       .  S
Al273       O286   1.906       .  S
Al273       O283   1.931       .  S
Al273       O278   1.757       .  S
O274        C281   1.274       .  A
O274       Al282   1.962       .  S
O275        C284   1.278       .  A
O275       Al282   1.994       .  S
O276       Al282   1.923       .  S
O277        C284   1.249       .  A
O278       Al282   1.785       .  S
O279        C280   1.269       .  A
C280       C4344   1.443       .  S
C281       C4427   1.477       .  S
C284       C4337   1.509       .  S
C285        O286   1.261       .  A
C285       C4537   1.464       .  S
O287        C302   1.261       .  A
O287       Al295   1.878       .  S
C288        O298   1.258       .  A
C288        O289   1.265       .  A
C288       C4367   1.504       .  S
O289       Al291   1.915       .  S
O290        C292   1.247       .  A
O290       Al291   1.847       .  S
Al291       O299   1.838       .  S
Al291       O301   1.919       .  S
Al291       O300   1.796       .  S
C292        O305   1.260       .  A
C292       C4324   1.437       .  S
O293        C303   1.261       .  A
O293       Al295   1.882       .  S
O294        C307   1.261       .  A
O294       Al304   1.913       .  S
Al295       O308   1.898       .  S
Al295       O305   1.905       .  S
Al295       O300   1.758       .  S
O296        C303   1.272       .  A
O296       Al304   1.960       .  S
O297        C306   1.279       .  A
O297       Al304   1.994       .  S
O298       Al304   1.923       .  S
O299        C306   1.248       .  A
O300       Al304   1.790       .  S
O301        C302   1.265       .  A
C302       C4317   1.451       .  S
C303       C4837   1.480       .  S
C306       C4297   1.502       .  S
C307        O308   1.259       .  A
C307       C4304   1.463       .  S
O309        C324   1.255       .  A
O309       Al317   1.859       .  S
C310        O320   1.252       .  A
C310        O311   1.279       .  A
C310       C4287   1.497       .  S
O311       Al313   1.984       .  S
O312        C314   1.259       .  A
O312       Al313   1.911       .  S
Al313       O321   1.945       .  S
Al313       O323   1.960       .  S
Al313       O322   1.775       .  S
C314        O327   1.262       .  A
C314       C4254   1.477       .  S
O315        C325   1.263       .  A
O315       Al317   1.883       .  S
O316        C329   1.258       .  A
O316       Al326   1.886       .  S
Al317       O330   1.895       .  S
Al317       O327   1.927       .  S
Al317       O322   1.754       .  S
O318        C325   1.263       .  A
O318       Al326   1.912       .  S
O319        C328   1.258       .  A
O319       Al326   1.907       .  S
O320       Al326   1.821       .  S
O321        C328   1.264       .  A
O322       Al326   1.790       .  S
O323        C324   1.273       .  A
C324       C4267   1.467       .  S
C325       C4807   1.457       .  S
C328       C4244   1.502       .  S
C329        O330   1.263       .  A
C329       C4274   1.445   1_655  S
O331        C346   1.258       .  A
O331       Al339   1.853       .  S
C332        O342   1.247       .  A
C332        O333   1.287       .  A
C332       C4284   1.513       .  S
O333       Al335   2.010       .  S
O334        C336   1.258       .  A
O334       Al335   1.907       .  S
Al335       O343   1.974       .  S
Al335       O345   1.964       .  S
Al335       O344   1.773       .  S
C336        O349   1.262       .  A
C336       C4214   1.474       .  S
O337        C347   1.259       .  A
O337       Al339   1.882       .  S
O338        C351   1.256       .  A
O338       Al348   1.876       .  S
Al339       O352   1.925       .  S
Al339       O349   1.920       .  S
Al339       O344   1.753       .  S
O340        C347   1.262       .  A
O340       Al348   1.918       .  S
O341        C350   1.252       .  A
O341       Al348   1.888       .  S
O342       Al348   1.799       .  S
O343        C350   1.265       .  A
O344       Al348   1.794       .  S
O345        C346   1.274       .  A
C346       C4204   1.475       .  S
C347       C4224   1.459       .  S
C350       C4194   1.513       .  S
C351        O352   1.270       .  A
C351       C4237   1.445       .  S
O353        C368   1.260       .  A
O353       Al361   1.867       .  S
C354        O364   1.252       .  A
C354        O355   1.280       .  A
C354       C4187   1.491       .  S
O355       Al357   1.977       .  S
O356        C358   1.256       .  A
O356       Al357   1.901       .  S
Al357       O365   1.940       .  S
Al357       O367   1.960       .  S
Al357       O366   1.776       .  S
C358        O371   1.259       .  A
C358       C4167   1.467       .  S
O359        C369   1.263       .  A
O359       Al361   1.894       .  S
O360        C373   1.258       .  A
O360       Al370   1.894       .  S
Al361       O374   1.904       .  S
Al361       O371   1.913       .  S
Al361       O366   1.757       .  S
O362        C369   1.263       .  A
O362       Al370   1.910       .  S
O363        C372   1.258       .  A
O363       Al370   1.902       .  S
O364       Al370   1.842       .  S
O365        C372   1.262       .  A
O366       Al370   1.792       .  S
O367        C368   1.273       .  A
C368       C4154   1.476       .  S
C369       C4314   1.461       .  S
C372       C4144   1.504       .  S
C373        O374   1.265       .  A
C373       C4174   1.447       .  S
O375        C390   1.255       .  A
O375       Al383   1.845       .  S
C376        O386   1.252       .  A
C376        O377   1.285       .  A
C376       C4184   1.517       .  S
O377       Al379   1.998       .  S
O378        C380   1.255       .  A
O378       Al379   1.903       .  S
Al379       O387   1.954       .  S
Al379       O389   1.983       .  S
Al379       O388   1.771       .  S
C380        O393   1.260       .  A
C380       C4117   1.472       .  S
O381        C391   1.261       .  A
O381       Al383   1.866       .  S
O382        C395   1.259       .  A
O382       Al392   1.884       .  S
Al383       O396   1.897       .  S
Al383       O393   1.919       .  S
Al383       O388   1.754       .  S
O384        C391   1.263       .  A
O384       Al392   1.914       .  S
O385        C394   1.256       .  A
O385       Al392   1.897       .  S
O386       Al392   1.830       .  S
O387        C394   1.264       .  A
O388       Al392   1.802       .  S
O389        C390   1.277       .  A
C390       C4104   1.479       .  S
C391       C4124   1.461       .  S
C394       C4097   1.509       .  S
C395        O396   1.264       .  A
C395       C4134   1.446       .  S
O397        C412   1.255       .  A
O397       Al405   1.861   1_556  S
C398        O408   1.258       .  A
C398        O399   1.284       .  A
C398       C4084   1.490       .  S
O399       Al401   1.981       .  S
O400        C402   1.261   1_554  A
O400       Al401   1.922       .  S
Al401       O409   1.968       .  S
Al401       O411   1.941   1_554  S
Al401       O410   1.779       .  S
C402        O415   1.257       .  A
C402       C4637   1.473       .  S
O403        C413   1.257       .  A
O403       Al405   1.891       .  S
O404        C417   1.265       .  A
O404       Al414   1.896       .  S
Al405       O418   1.897       .  S
Al405       O415   1.890   1_554  S
Al405       O410   1.753       .  S
O406        C413   1.254       .  A
O406       Al414   1.893       .  S
O407        C416   1.253       .  A
O407       Al414   1.896       .  S
O408       Al414   1.855       .  S
O409        C416   1.264       .  A
O410       Al414   1.802       .  S
O411        C412   1.267       .  A
C412       C4054   1.465       .  S
C413       C4064   1.444       .  S
C416       C4044   1.515       .  S
C417        O418   1.269       .  A
C417       C4077   1.456   1_455  S
O419        C434   1.254       .  A
O419       Al427   1.858       .  S
C420        O430   1.251       .  A
C420        O421   1.283       .  A
C420       C4087   1.512       .  S
O421       Al423   1.988       .  S
O422        C424   1.255       .  A
O422       Al423   1.886       .  S
Al423       O431   1.947       .  S
Al423       O433   1.974       .  S
Al423       O432   1.778       .  S
C424        O437   1.265       .  A
C424       C4007   1.465       .  S
O425        C435   1.260       .  A
O425       Al427   1.865       .  S
O426        C439   1.256       .  A
O426       Al436   1.881       .  S
Al427       O440   1.900       .  S
Al427       O437   1.933       .  S
Al427       O432   1.751       .  S
O428        C435   1.263       .  A
O428       Al436   1.918       .  S
O429        C438   1.261       .  A
O429       Al436   1.904       .  S
O430       Al436   1.835       .  S
O431        C438   1.264       .  A
O432       Al436   1.798       .  S
O433        C434   1.274       .  A
C434       C4014   1.479       .  S
C435       C4034   1.452       .  S
C438       C3994   1.511       .  S
C439        O440   1.264       .  A
C439       C4027   1.441       .  S
O441        C456   1.258       .  A
O441       Al449   1.857       .  S
C442        O452   1.260       .  A
C442        O443   1.274       .  A
C442       C3977   1.504       .  S
O443       Al445   1.932       .  S
O444        C446   1.249       .  A
O444       Al445   1.868       .  S
Al445       O453   1.861       .  S
Al445       O455   1.938       .  S
Al445       O454   1.779       .  S
C446        O459   1.260       .  A
C446       C4074   1.453       .  S
O447        C457   1.263       .  A
O447       Al449   1.880       .  S
O448        C461   1.264       .  A
O448       Al458   1.922       .  S
Al449       O462   1.912       .  S
Al449       O459   1.917       .  S
Al449       O454   1.753       .  S
O450        C457   1.277       .  A
O450       Al458   1.973       .  S
O451        C460   1.276       .  A
O451       Al458   1.989       .  S
O452       Al458   1.911       .  S
O453        C460   1.248       .  A
O454       Al458   1.785       .  S
O455        C456   1.271       .  A
C456       C3967   1.456   1_554  S
C457       C3984   1.478       .  S
C460       C3954   1.505       .  S
C461        O462   1.261       .  A
C461       C4947   1.463       .  S
O463        C478   1.261       .  A
O463       Al471   1.882       .  S
C464        O474   1.259       .  A
C464        O465   1.263       .  A
C464       C3974   1.501       .  S
O465       Al467   1.913       .  S
O466        C468   1.254       .  A
O466       Al467   1.870       .  S
Al467       O475   1.853       .  S
Al467       O477   1.899       .  S
Al467       O476   1.799       .  S
C468        O481   1.263       .  A
C468       C4177   1.447       .  S
O469        C479   1.260       .  A
O469       Al471   1.880       .  S
O470        C483   1.264       .  A
O470       Al480   1.922       .  S
Al471       O484   1.904       .  S
Al471       O481   1.903       .  S
Al471       O476   1.753       .  S
O472        C479   1.268       .  A
O472       Al480   1.944       .  S
O473        C482   1.278       .  A
O473       Al480   1.983       .  S
O474       Al480   1.927       .  S
O475        C482   1.251       .  A
O476       Al480   1.790       .  S
O477        C478   1.260       .  A
C478       C3944   1.448       .  S
C479       C4307   1.474       .  S
C482       C3934   1.495       .  S
C483        O484   1.261       .  A
C483       C4867   1.472       .  S
O485        C500   1.251       .  A
O485       Al493   1.855       .  S
C486        O496   1.252       .  A
C486        O487   1.288       .  A
C486       C3924   1.519       .  S
O487       Al489   2.008       .  S
O488        C490   1.255       .  A
O488       Al489   1.889       .  S
Al489       O497   1.963       .  S
Al489       O499   1.993       .  S
Al489       O498   1.768       .  S
C490        O503   1.264       .  A
C490       C3894   1.462       .  S
O491        C501   1.259       .  A
O491       Al493   1.867       .  S
O492        C505   1.259       .  A
O492       Al502   1.889       .  S
Al493       O506   1.891       .  S
Al493       O503   1.927       .  S
Al493       O498   1.747       .  S
O494        C501   1.265       .  A
O494       Al502   1.917       .  S
O495        C504   1.256       .  A
O495       Al502   1.896       .  S
O496       Al502   1.825       .  S
O497        C504   1.267       .  A
O498       Al502   1.790       .  S
O499        C500   1.278       .  A
C500       C3904   1.476       .  S
C501       C4744   1.462       .  S
C504       C3884   1.507       .  S
C505        O506   1.266       .  A
C505       C3917   1.450   1_565  S
O507        C522   1.256       .  A
O507       Al515   1.853       .  S
C508        O518   1.256       .  A
C508        O509   1.285       .  A
C508       C3927   1.496       .  S
O509       Al511   1.986       .  S
O510        C512   1.256       .  A
O510       Al511   1.908       .  S
Al511       O519   1.953       .  S
Al511       O521   1.949       .  S
Al511       O520   1.777       .  S
C512        O525   1.257       .  A
C512       C3854   1.472       .  S
O513        C523   1.258       .  A
O513       Al515   1.889       .  S
O514        C527   1.263       .  A
O514       Al524   1.888       .  S
Al515       O528   1.900       .  S
Al515       O525   1.896       .  S
Al515       O520   1.755       .  S
O516        C523   1.256       .  A
O516       Al524   1.901       .  S
O517        C526   1.253       .  A
O517       Al524   1.900       .  S
O518       Al524   1.841       .  S
O519        C526   1.261       .  A
O520       Al524   1.804       .  S
O521        C522   1.271       .  A
C522       C4004   1.468       .  S
C523       C3864   1.452       .  S
C526       C3844   1.513       .  S
C527        O528   1.268       .  A
C527       C3874   1.446       .  S
O529        C544   1.255       .  A
O529       Al537   1.859       .  S
C530        O540   1.250       .  A
C530        O531   1.282       .  A
C530       C3834   1.508       .  S
O531       Al533   1.982       .  S
O532        C534   1.258       .  A
O532       Al533   1.896       .  S
Al533       O541   1.949       .  S
Al533       O543   1.990       .  S
Al533       O542   1.778       .  S
C534        O547   1.266       .  A
C534       C3814   1.467       .  S
O535        C545   1.261       .  A
O535       Al537   1.860       .  S
O536        C549   1.258       .  A
O536       Al546   1.896       .  S
Al537       O550   1.889       .  S
Al537       O547   1.934       .  S
Al537       O542   1.746       .  S
O538        C545   1.263       .  A
O538       Al546   1.909       .  S
O539        C548   1.263       .  A
O539       Al546   1.911       .  S
O540       Al546   1.845       .  S
O541        C548   1.268       .  A
O542       Al546   1.796       .  S
O543        C544   1.275       .  A
C544       C3804   1.488       .  S
C545       C4407   1.444       .  S
C548       C3797   1.513       .  S
C549        O550   1.261       .  A
C549       C3824   1.447       .  S
O551        C566   1.261       .  A
O551       Al559   1.885       .  S
C552        O562   1.257       .  A
C552        O553   1.280       .  A
C552       C3837   1.496       .  S
O553       Al555   1.967       .  S
O554        C556   1.257       .  A
O554       Al555   1.908       .  S
Al555       O563   1.948       .  S
Al555       O565   1.936       .  S
Al555       O564   1.782       .  S
C556        O569   1.256       .  A
C556       C3754   1.468       .  S
O557        C567   1.262       .  A
O557       Al559   1.901       .  S
O558        C571   1.266       .  A
O558       Al568   1.914       .  S
Al559       O572   1.890       .  S
Al559       O569   1.890       .  S
Al559       O564   1.756       .  S
O560        C567   1.256       .  A
O560       Al568   1.899       .  S
O561        C570   1.256       .  A
O561       Al568   1.900       .  S
O562       Al568   1.868       .  S
O563        C570   1.262       .  A
O564       Al568   1.804       .  S
O565        C566   1.268       .  A
C566       C3764   1.471       .  S
C567       C3777   1.457       .  S
C570       C3744   1.507       .  S
C571        O572   1.265       .  A
C571       C3784   1.457       .  S
O573        C588   1.260       .  A
O573       Al581   1.870       .  S
C574        O584   1.263       .  A
C574        O575   1.266       .  A
C574       C3724   1.517       .  S
O575       Al577   1.909       .  S
O576        C578   1.249       .  A
O576       Al577   1.870       .  S
Al577       O585   1.865       .  S
Al577       O587   1.897       .  S
Al577       O586   1.793       .  S
C578        O591   1.259       .  A
C578       C3787   1.453       .  S
O579        C589   1.260   1_545  A
O579       Al581   1.878       .  S
O580        C593   1.265       .  A
O580       Al590   1.929   1_565  S
Al581       O594   1.893   1_545  S
Al581       O591   1.897       .  S
Al581       O586   1.755       .  S
O582        C589   1.270       .  A
O582       Al590   1.953   1_565  S
O583        C592   1.275       .  A
O583       Al590   1.975       .  S
O584       Al590   1.936       .  S
O585        C592   1.251       .  A
O586       Al590   1.789       .  S
O587        C588   1.262       .  A
C588       C3707   1.443       .  S
C589       C3737   1.474       .  S
C592       C3694   1.490       .  S
C593        O594   1.258       .  A
C593       C3714   1.466       .  S
O595        C610   1.260       .  A
O595       Al603   1.884       .  S
C596        O606   1.264       .  A
C596        O597   1.264       .  A
C596       C3727   1.518       .  S
O597       Al599   1.907       .  S
O598        C600   1.250       .  A
O598       Al599   1.861       .  S
Al599       O607   1.852       .  S
Al599       O609   1.893       .  S
Al599       O608   1.790       .  S
C600        O613   1.259       .  A
C600       C3677   1.441       .  S
O601        C611   1.256       .  A
O601       Al603   1.869       .  S
O602        C615   1.263       .  A
O602       Al612   1.921       .  S
Al603       O616   1.888       .  S
Al603       O613   1.888       .  S
Al603       O608   1.755       .  S
O604        C611   1.275       .  A
O604       Al612   1.981       .  S
O605        C614   1.284       .  A
O605       Al612   2.006       .  S
O606       Al612   1.946       .  S
O607        C614   1.251       .  A
O608       Al612   1.783       .  S
O609        C610   1.260       .  A
C610       C3684   1.437       .  S
C611       C3667   1.482       .  S
C614       C4377   1.513       .  S
C615        O616   1.258       .  A
C615       C3654   1.461       .  S
O617        C632   1.262       .  A
O617       Al625   1.883   1_565  S
C618        O628   1.256       .  A
C618        O619   1.261       .  A
C618       C3644   1.501       .  S
O619       Al621   1.911       .  S
O620        C622   1.252       .  A
O620       Al621   1.859       .  S
Al621       O629   1.846       .  S
Al621       O631   1.902       .  S
Al621       O630   1.802       .  S
C622        O635   1.263       .  A
C622       C3627   1.446       .  S
O623        C633   1.264       .  A
O623       Al625   1.881       .  S
O624        C637   1.257       .  A
O624       Al634   1.900       .  S
Al625       O638   1.894       .  S
Al625       O635   1.923       .  S
Al625       O630   1.764       .  S
O626        C633   1.271       .  A
O626       Al634   1.952       .  S
O627        C636   1.279       .  A
O627       Al634   1.992       .  S
O628       Al634   1.919       .  S
O629        C636   1.250       .  A
O630       Al634   1.790       .  S
O631        C632   1.261   1_545  A
C632       C3637   1.447       .  S
C633       C3614   1.482       .  S
C636       C3604   1.506       .  S
C637        O638   1.258       .  A
C637       C4727   1.459       .  S
O639        C654   1.255       .  A
O639       Al647   1.867       .  S
C640        O650   1.260       .  A
C640        O641   1.266       .  A
C640       C3647   1.510       .  S
O641       Al643   1.918       .  S
O642        C644   1.251       .  A
O642       Al643   1.852       .  S
Al643       O651   1.851       .  S
Al643       O653   1.905       .  S
Al643       O652   1.802       .  S
C644        O657   1.265       .  A
C644       C3827   1.450       .  S
O645        C655   1.260       .  A
O645       Al647   1.876       .  S
O646        C659   1.264       .  A
O646       Al656   1.915       .  S
Al647       O660   1.890       .  S
Al647       O657   1.926       .  S
Al647       O652   1.763       .  S
O648        C655   1.268       .  A
O648       Al656   1.949       .  S
O649        C658   1.280       .  A
O649       Al656   2.002       .  S
O650       Al656   1.931       .  S
O651        C658   1.250       .  A
O652       Al656   1.794       .  S
O653        C654   1.259       .  A
C654       C3594   1.440       .  S
C655       C4387   1.478       .  S
C658       C3584   1.514       .  S
C659        O660   1.260       .  A
C659       C4924   1.463       .  S
O661        C676   1.255       .  A
O661       Al669   1.849   1_565  S
C662        O672   1.252       .  A
C662        O663   1.286       .  A
C662       C3577   1.525       .  S
O663       Al665   1.998       .  S
O664        C666   1.257       .  A
O664       Al665   1.908   1_565  S
Al665       O673   1.967       .  S
Al665       O675   1.976   1_545  S
Al665       O674   1.767       .  S
C666        O679   1.263       .  A
C666       C3907   1.482       .  S
O667        C677   1.263       .  A
O667       Al669   1.871       .  S
O668        C681   1.257   1_554  A
O668       Al678   1.887       .  S
Al669       O682   1.896       .  S
Al669       O679   1.933   1_545  S
Al669       O674   1.754       .  S
O670        C677   1.264       .  A
O670       Al678   1.919       .  S
O671        C680   1.255       .  A
O671       Al678   1.903       .  S
O672       Al678   1.835       .  S
O673        C680   1.266       .  A
O674       Al678   1.807       .  S
O675        C676   1.276       .  A
C676       C3554   1.477       .  S
C677       C3567   1.458       .  S
C680       C3544   1.517       .  S
C681        O682   1.263   1_556  A
C681       C3624   1.439       .  S
O683        C698   1.259       .  A
O683       Al691   1.867       .  S
C684        O694   1.251       .  A
C684        O685   1.281       .  A
C684       C3574   1.499       .  S
O685       Al687   1.989       .  S
O686        C688   1.258       .  A
O686       Al687   1.910       .  S
Al687       O695   1.960       .  S
Al687       O697   1.964       .  S
Al687       O696   1.771       .  S
C688        O701   1.259       .  A
C688       C4207   1.470       .  S
O689        C699   1.264       .  A
O689       Al691   1.884       .  S
O690        C703   1.259       .  A
O690       Al700   1.897       .  S
Al691       O704   1.897       .  S
Al691       O701   1.914       .  S
Al691       O696   1.756       .  S
O692        C699   1.262       .  A
O692       Al700   1.903       .  S
O693        C702   1.257       .  A
O693       Al700   1.901       .  S
O694       Al700   1.838       .  S
O695        C702   1.266       .  A
O696       Al700   1.792       .  S
O697        C698   1.274       .  A
C698       C3517   1.471       .  S
C699       C3524   1.462       .  S
C702       C3504   1.514       .  S
C703        O704   1.264       .  A
C703       C3534   1.449       .  S
O705        C720   1.253       .  A
O705       Al713   1.852   1_655  S
C706        O716   1.250       .  A
C706        O707   1.281       .  A
C706       C3494   1.503       .  S
O707       Al709   1.999       .  S
O708        C710   1.255   1_455  A
O708       Al709   1.888       .  S
Al709       O717   1.939       .  S
Al709       O719   1.980   1_455  S
Al709       O718   1.776       .  S
C710        O723   1.265       .  A
C710       C4264   1.467       .  S
O711        C721   1.261       .  A
O711       Al713   1.874       .  S
O712        C725   1.255       .  A
O712       Al722   1.878   1_565  S
Al713       O726   1.902   1_545  S
Al713       O723   1.934   1_455  S
Al713       O718   1.756       .  S
O714        C721   1.263       .  A
O714       Al722   1.916       .  S
O715        C724   1.260       .  A
O715       Al722   1.914       .  S
O716       Al722   1.818       .  S
O717        C724   1.263       .  A
O718       Al722   1.787       .  S
O719        C720   1.275       .  A
C720       C3474   1.479       .  S
C721       C3467   1.449       .  S
C724       C3454   1.506       .  S
C725        O726   1.263       .  A
C725       C3487   1.440       .  S
O727        C742   1.262       .  A
O727       Al735   1.865       .  S
C728        O738   1.250       .  A
C728        O729   1.281       .  A
C728       C3497   1.521       .  S
O729       Al731   1.979       .  S
O730        C732   1.256       .  A
O730       Al731   1.931       .  S
Al731       O739   1.992       .  S
Al731       O741   1.960       .  S
Al731       O740   1.771       .  S
C732        O745   1.251       .  A
C732       C4607   1.482       .  S
O733        C743   1.263       .  A
O733       Al735   1.879       .  S
O734        C747   1.249       .  A
O734       Al744   1.877       .  S
Al735       O748   1.890       .  S
Al735       O745   1.892       .  S
Al735       O740   1.770       .  S
O736        C743   1.261       .  A
O736       Al744   1.896       .  S
O737        C746   1.244       .  A
O737       Al744   1.857       .  S
O738       Al744   1.837       .  S
O739        C746   1.270       .  A
O740       Al744   1.806       .  S
O741        C742   1.277       .  A
C742       C3434   1.465       .  S
C743       C3444   1.448       .  S
C746       C3424   1.513       .  S
C747        O748   1.256       .  A
C747       C3674   1.443       .  S
O749        C764   1.260       .  A
O749       Al757   1.884       .  S
C750        O760   1.265       .  A
C750        O751   1.265       .  A
C750       C3407   1.522       .  S
O751       Al753   1.909       .  S
O752        C754   1.245       .  A
O752       Al753   1.842       .  S
Al753       O761   1.845       .  S
Al753       O763   1.887       .  S
Al753       O762   1.785       .  S
C754        O767   1.262       .  A
C754       C3484   1.440       .  S
O755        C765   1.258       .  A
O755       Al757   1.876       .  S
O756        C769   1.266       .  A
O756       Al766   1.922       .  S
Al757       O770   1.914       .  S
Al757       O767   1.923       .  S
Al757       O762   1.759       .  S
O758        C765   1.272       .  A
O758       Al766   1.963       .  S
O759        C768   1.282       .  A
O759       Al766   2.003       .  S
O760       Al766   1.953       .  S
O761        C768   1.249       .  A
O762       Al766   1.784       .  S
O763        C764   1.259       .  A
C764       C3397   1.438   1_455  S
C765       C3417   1.477       .  S
C768       C3387   1.507       .  S
C769        O770   1.264       .  A
C769       C4787   1.472       .  S
O771        C786   1.260       .  A
O771       Al779   1.885       .  S
C772        O782   1.262       .  A
C772        O773   1.270       .  A
C772       C3404   1.520       .  S
O773       Al775   1.918       .  S
O774        C776   1.248       .  A
O774       Al775   1.855       .  S
Al775       O783   1.866       .  S
Al775       O785   1.896       .  S
Al775       O784   1.788       .  S
C776        O789   1.259       .  A
C776       C3367   1.445       .  S
O777        C787   1.257       .  A
O777       Al779   1.876       .  S
O778        C791   1.266       .  A
O778       Al788   1.919       .  S
Al779       O792   1.903       .  S
Al779       O789   1.896       .  S
Al779       O784   1.758       .  S
O780        C787   1.267       .  A
O780       Al788   1.949       .  S
O781        C790   1.275       .  A
O781       Al788   1.979       .  S
O782       Al788   1.930       .  S
O783        C790   1.251       .  A
O784       Al788   1.797       .  S
O785        C786   1.259       .  A
C786       C3374   1.444       .  S
C787       C4477   1.477       .  S
C790       C3354   1.496       .  S
C791        O792   1.262       .  A
C791       C4707   1.465       .  S
O793        C808   1.256       .  A
O793       Al801   1.872   1_565  S
C794        O804   1.247       .  A
C794        O795   1.280       .  A
C794       C3327   1.492       .  S
O795       Al797   1.977       .  S
O796        C798   1.263       .  A
O796       Al797   1.920   1_565  S
Al797       O805   1.960       .  S
Al797       O807   1.965   1_545  S
Al797       O806   1.773       .  S
C798        O811   1.267       .  A
C798       C3304   1.484       .  S
O799        C809   1.261       .  A
O799       Al801   1.872       .  S
O800        C813   1.254   1_556  A
O800       Al810   1.881       .  S
Al801       O814   1.902       .  S
Al801       O811   1.938   1_545  S
Al801       O806   1.754       .  S
O802        C809   1.263       .  A
O802       Al810   1.906       .  S
O803        C812   1.264       .  A
O803       Al810   1.916       .  S
O804       Al810   1.840       .  S
O805        C812   1.269       .  A
O806       Al810   1.793       .  S
O807        C808   1.272       .  A
C808       C3347   1.474       .  S
C809       C3314   1.447       .  S
C812       C3547   1.523       .  S
C813        O814   1.263   1_554  A
C813       C3334   1.441       .  S
O815        C830   1.254       .  A
O815       Al823   1.847       .  S
C816        O826   1.250       .  A
C816        O817   1.281       .  A
C816       C3324   1.495       .  S
O817       Al819   1.983       .  S
O818        C820   1.260       .  A
O818       Al819   1.916       .  S
Al819       O827   1.939       .  S
Al819       O829   1.976       .  S
Al819       O828   1.769       .  S
C820        O833   1.262       .  A
C820       C3807   1.481       .  S
O821        C831   1.257       .  A
O821       Al823   1.847       .  S
O822        C835   1.255       .  A
O822       Al832   1.887       .  S
Al823       O836   1.893       .  S
Al823       O833   1.934       .  S
Al823       O828   1.752       .  S
O824        C831   1.269       .  A
O824       Al832   1.937       .  S
O825        C834   1.262       .  A
O825       Al832   1.918       .  S
O826       Al832   1.842       .  S
O827        C834   1.265       .  A
O828       Al832   1.797       .  S
O829        C830   1.275       .  A
C830       C3294   1.475       .  S
C831       C3597   1.464       .  S
C834       C4567   1.506       .  S
C835        O836   1.261       .  A
C835       C4917   1.440       .  S
O837        C852   1.261       .  A
O837       Al845   1.888       .  S
C838        O848   1.263       .  A
C838        O839   1.259       .  A
C838       C3284   1.522       .  S
O839       Al841   1.897       .  S
O840        C842   1.249       .  A
O840       Al841   1.856       .  S
Al841       O849   1.842       .  S
Al841       O851   1.875       .  S
Al841       O850   1.797       .  S
C842        O855   1.263       .  A
C842       C4597   1.444       .  S
O843        C853   1.258       .  A
O843       Al845   1.874       .  S
O844        C857   1.266       .  A
O844       Al854   1.933       .  S
Al845       O858   1.898       .  S
Al845       O855   1.903       .  S
Al845       O850   1.757       .  S
O846        C853   1.269       .  A
O846       Al854   1.951       .  S
O847        C856   1.283       .  A
O847       Al854   2.001       .  S
O848       Al854   1.957       .  S
O849        C856   1.251       .  A
O850       Al854   1.786       .  S
O851        C852   1.256       .  A
C852       C3447   1.443       .  S
C853       C3274   1.474       .  S
C856       C3357   1.502       .  S
C857        O858   1.259       .  A
C857       C3664   1.477       .  S
O859        C874   1.260       .  A
O859       Al867   1.863       .  S
C860        O870   1.265       .  A
C860        O861   1.273       .  A
C860       C3287   1.519       .  S
O861       Al863   1.926       .  S
O862        C864   1.244       .  A
O862       Al863   1.849       .  S
Al863       O871   1.865       .  S
Al863       O873   1.913       .  S
Al863       O872   1.777       .  S
C864        O877   1.257       .  A
C864       C3257   1.444       .  S
O865        C875   1.259       .  A
O865       Al867   1.882       .  S
O866        C879   1.269       .  A
O866       Al876   1.924   1_554  S
Al867       O880   1.918   1_556  S
Al867       O877   1.911       .  S
Al867       O872   1.759       .  S
O868        C875   1.273       .  A
O868       Al876   1.970       .  S
O869        C878   1.276       .  A
O869       Al876   1.992       .  S
O870       Al876   1.928       .  S
O871        C878   1.249       .  A
O872       Al876   1.789       .  S
O873        C874   1.265       .  A
C874       C3317   1.455   1_455  S
C875       C3247   1.481   1_556  S
C878       C4937   1.506       .  S
C879        O880   1.265       .  A
C879       C3267   1.468       .  S
O881        C896   1.263       .  A
O881       Al889   1.851   1_556  S
C882        O892   1.251       .  A
C882        O883   1.277       .  A
C882       C3217   1.523       .  S
O883       Al885   1.977       .  S
O884        C886   1.250   1_554  A
O884       Al885   1.907       .  S
Al885       O893   1.962       .  S
Al885       O895   1.977   1_554  S
Al885       O894   1.766       .  S
C886        O899   1.251       .  A
C886       C3344   1.470       .  S
O887        C897   1.267       .  A
O887       Al889   1.879       .  S
O888        C901   1.247       .  A
O888       Al898   1.878       .  S
Al889       O902   1.877       .  S
Al889       O899   1.904   1_554  S
Al889       O894   1.773       .  S
O890        C897   1.271       .  A
O890       Al898   1.916       .  S
O891        C900   1.248       .  A
O891       Al898   1.867       .  S
O892       Al898   1.852       .  S
O893        C900   1.267       .  A
O894       Al898   1.801       .  S
O895        C896   1.282       .  A
C896       C3234   1.473       .  S
C897       C3204   1.462       .  S
C900       C4047   1.501       .  S
C901        O902   1.253       .  A
C901       C3227   1.440   1_655  S
O903        C918   1.259       .  A
O903       Al911   1.861       .  S
C904        O914   1.252       .  A
C904        O905   1.283       .  A
C904       C3214   1.506       .  S
O905       Al907   1.988       .  S
O906        C908   1.254       .  A
O906       Al907   1.906       .  S
Al907       O915   1.960       .  S
Al907       O917   1.952       .  S
Al907       O916   1.774       .  S
C908        O921   1.255       .  A
C908       C4157   1.467       .  S
O909        C919   1.261       .  A
O909       Al911   1.886       .  S
O910        C923   1.261       .  A
O910       Al920   1.896       .  S
Al911       O924   1.890       .  S
Al911       O921   1.894       .  S
Al911       O916   1.755       .  S
O912        C919   1.260       .  A
O912       Al920   1.910       .  S
O913        C922   1.252       .  A
O913       Al920   1.892       .  S
O914       Al920   1.817       .  S
O915        C922   1.263       .  A
O916       Al920   1.800       .  S
O917        C918   1.273       .  A
C918       C3194   1.470       .  S
C919       C3947   1.456       .  S
C922       C4197   1.510       .  S
C923        O924   1.265       .  A
C923       C4857   1.447       .  S
O925        C940   1.257       .  A
O925       Al933   1.868       .  S
C926        O936   1.258       .  A
C926        O927   1.272       .  A
C926       C3164   1.508       .  S
O927       Al929   1.928       .  S
O928        C930   1.250       .  A
O928       Al929   1.865       .  S
Al929       O937   1.875       .  S
Al929       O939   1.920       .  S
Al929       O938   1.792       .  S
C930        O943   1.263       .  A
C930       C4234   1.448       .  S
O931        C941   1.261       .  A
O931       Al933   1.879       .  S
O932        C945   1.263       .  A
O932       Al942   1.908       .  S
Al933       O946   1.908       .  S
Al933       O943   1.919       .  S
Al933       O938   1.756       .  S
O934        C941   1.269       .  A
O934       Al942   1.947       .  S
O935        C944   1.276       .  A
O935       Al942   1.982       .  S
O936       Al942   1.912       .  S
O937        C944   1.251       .  A
O938       Al942   1.794       .  S
O939        C940   1.263       .  A
C940       C3527   1.444       .  S
C941       C3174   1.477       .  S
C944       C3587   1.498       .  S
C945        O946   1.264       .  A
C945       C3184   1.463       .  S
O947        C962   1.260       .  A
O947       Al955   1.879   1_565  S
C948        O958   1.256       .  A
C948        O949   1.267       .  A
C948       C3167   1.506       .  S
O949       Al951   1.918       .  S
O950        C952   1.251       .  A
O950       Al951   1.853       .  S
Al951       O959   1.853       .  S
Al951       O961   1.907       .  S
Al951       O960   1.799       .  S
C952        O965   1.262       .  A
C952       C3337   1.438       .  S
O953        C963   1.260       .  A
O953       Al955   1.883       .  S
O954        C967   1.260       .  A
O954       Al964   1.904   1_455  S
Al955       O968   1.905   1_655  S
Al955       O965   1.906       .  S
Al955       O960   1.754       .  S
O956        C963   1.270       .  A
O956       Al964   1.951       .  S
O957        C966   1.280       .  A
O957       Al964   1.992       .  S
O958       Al964   1.920       .  S
O959        C966   1.251       .  A
O960       Al964   1.793       .  S
O961        C962   1.260   1_545  A
C962       C3207   1.444       .  S
C963       C3264   1.480   1_655  S
C966       C4777   1.508       .  S
C967        O968   1.261       .  A
C967       C3154   1.463       .  S
O969        C984   1.254       .  A
O969       Al977   1.865   1_655  S
C970        O980   1.254       .  A
C970        O971   1.287       .  A
C970       C3147   1.520       .  S
O971       Al973   1.992       .  S
O972        C974   1.254   1_455  A
O972       Al973   1.889       .  S
Al973       O981   1.964       .  S
Al973       O983   1.971   1_455  S
Al973       O982   1.774       .  S
C974        O987   1.264       .  A
C974       C3237   1.468       .  S
O975        C985   1.259       .  A
O975       Al977   1.874       .  S
O976        C989   1.261       .  A
O976       Al986   1.885       .  S
Al977       O990   1.907       .  S
Al977       O987   1.927   1_455  S
Al977       O982   1.752       .  S
O978        C985   1.260       .  A
O978       Al986   1.910       .  S
O979        C988   1.255       .  A
O979       Al986   1.896       .  S
O980       Al986   1.839       .  S
O981        C988   1.266       .  A
O982       Al986   1.804       .  S
O983        C984   1.274       .  A
C984       C3307   1.476       .  S
C985       C3134   1.453       .  S
C988       C3457   1.511       .  S
C989        O990   1.268       .  A
C989       C3254   1.445   1_565  S
O991       C1006   1.257       .  A
O991       Al999   1.862       .  S
C992       O1002   1.249       .  A
C992        O993   1.280       .  A
C992       C3144   1.494       .  S
O993       Al995   1.988       .  S
O994        C996   1.256       .  A
O994       Al995   1.899       .  S
Al995      O1003   1.944       .  S
Al995      O1005   1.975       .  S
Al995      O1004   1.771       .  S
C996       O1009   1.263       .  A
C996       C3114   1.469       .  S
O997       C1007   1.259       .  A
O997       Al999   1.869       .  S
O998       C1011   1.255       .  A
O998      Al1008   1.884       .  S
Al999      O1012   1.910       .  S
Al999      O1009   1.927       .  S
Al999      O1004   1.757       .  S
O1000      C1007   1.266       .  A
O1000     Al1008   1.918       .  S
O1001      C1010   1.261       .  A
O1001     Al1008   1.916       .  S
O1002     Al1008   1.830       .  S
O1003      C1010   1.265       .  A
O1004     Al1008   1.787       .  S
O1005      C1006   1.275       .  A
C1006      C3124   1.479       .  S
C1007      C3377   1.464       .  S
C1010      C3847   1.508       .  S
C1011      O1012   1.264       .  A
C1011      C4697   1.445       .  S
O1013      C1028   1.259       .  A
O1013     Al1021   1.865       .  S
C1014      O1024   1.266       .  A
C1014      O1015   1.269       .  A
C1014      C3097   1.517       .  S
O1015     Al1017   1.917       .  S
O1016      C1018   1.247       .  A
O1016     Al1017   1.864       .  S
Al1017     O1025   1.851       .  S
Al1017     O1027   1.918       .  S
Al1017     O1026   1.774       .  S
C1018      O1031   1.260       .  A
C1018      C3877   1.444       .  S
O1019      C1029   1.259       .  A
O1019     Al1021   1.876       .  S
O1020      C1033   1.268       .  A
O1020     Al1030   1.926       .  S
Al1021     O1034   1.922       .  S
Al1021     O1031   1.917       .  S
Al1021     O1026   1.756       .  S
O1022      C1029   1.273       .  A
O1022     Al1030   1.969       .  S
O1023      C1032   1.277       .  A
O1023     Al1030   1.990       .  S
O1024     Al1030   1.938       .  S
O1025      C1032   1.249       .  A
O1026     Al1030   1.781       .  S
O1027      C1028   1.267       .  A
C1028      C4037   1.447       .  S
C1029      C3084   1.475       .  S
C1032      C3937   1.497       .  S
C1033      O1034   1.265       .  A
C1033      C3104   1.471       .  S
O1035      C1050   1.259       .  A
O1035     Al1043   1.879       .  S
C1036      O1046   1.262       .  A
C1036      O1037   1.262       .  A
C1036      C3094   1.518       .  S
O1037     Al1039   1.906       .  S
O1038      C1040   1.251       .  A
O1038     Al1039   1.857       .  S
Al1039     O1047   1.841       .  S
Al1039     O1049   1.901       .  S
Al1039     O1048   1.792       .  S
C1040      O1053   1.262       .  A
C1040      C3224   1.440       .  S
O1041      C1051   1.255       .  A
O1041     Al1043   1.855       .  S
O1042      C1055   1.264   1_565  A
O1042     Al1052   1.930       .  S
Al1043     O1056   1.890   1_565  S
Al1043     O1053   1.896       .  S
Al1043     O1048   1.754       .  S
O1044      C1051   1.270       .  A
O1044     Al1052   1.956       .  S
O1045      C1054   1.280       .  A
O1045     Al1052   1.984       .  S
O1046     Al1052   1.944       .  S
O1047      C1054   1.251       .  A
O1048     Al1052   1.782       .  S
O1049      C1050   1.262       .  A
C1050      C3137   1.448   1_554  S
C1051      C3157   1.468       .  S
C1054      C4714   1.492       .  S
C1055      O1056   1.257       .  A
C1055      C3244   1.471       .  S
O1057      C1072   1.257       .  A
O1057     Al1065   1.875       .  S
C1058      O1068   1.250       .  A
C1058      O1059   1.276       .  A
C1058      C3074   1.498       .  S
O1059     Al1061   1.966       .  S
O1060      C1062   1.260       .  A
O1060     Al1061   1.906       .  S
Al1061     O1069   1.929       .  S
Al1061     O1071   1.953       .  S
Al1061     O1070   1.777       .  S
C1062      O1075   1.268       .  A
C1062      C3437   1.474       .  S
O1063      C1073   1.260       .  A
O1063     Al1065   1.865       .  S
O1064      C1077   1.255       .  A
O1064     Al1074   1.886       .  S
Al1065     O1078   1.899       .  S
Al1065     O1075   1.934       .  S
Al1065     O1070   1.751       .  S
O1066      C1073   1.265       .  A
O1066     Al1074   1.913       .  S
O1067      C1076   1.266       .  A
O1067     Al1074   1.927       .  S
O1068     Al1074   1.860       .  S
O1069      C1076   1.263       .  A
O1070     Al1074   1.792       .  S
O1071      C1072   1.270       .  A
C1072      C4574   1.470       .  S
C1073      C3687   1.458       .  S
C1076      C3057   1.501       .  S
C1077      O1078   1.262       .  A
C1077      C3064   1.446       .  S
O1079      C1094   1.258       .  A
O1079     Al1087   1.864       .  S
C1080      O1090   1.256       .  A
C1080      O1081   1.283       .  A
C1080      C3077   1.499       .  S
O1081     Al1083   1.975       .  S
O1082      C1084   1.256       .  A
O1082     Al1083   1.907       .  S
Al1083     O1091   1.941       .  S
Al1083     O1093   1.942       .  S
Al1083     O1092   1.779       .  S
C1084      O1097   1.259       .  A
C1084      C3034   1.477       .  S
O1085      C1095   1.262       .  A
O1085     Al1087   1.891       .  S
O1086      C1099   1.268       .  A
O1086     Al1096   1.913       .  S
Al1087     O1100   1.883       .  S
Al1087     O1097   1.911       .  S
Al1087     O1092   1.761       .  S
O1088      C1095   1.253       .  A
O1088     Al1096   1.887       .  S
O1089      C1098   1.253       .  A
O1089     Al1096   1.902       .  S
O1090     Al1096   1.865       .  S
O1091      C1098   1.258       .  A
O1092     Al1096   1.812       .  S
O1093      C1094   1.269       .  A
C1094      C3044   1.476       .  S
C1095      C4527   1.451       .  S
C1098      C3747   1.503       .  S
C1099      O1100   1.264       .  A
C1099      C4447   1.456       .  S
O1101      C1116   1.259       .  A
O1101     Al1109   1.848       .  S
C1102      O1112   1.250       .  A
C1102      O1103   1.285       .  A
C1102      C3027   1.518       .  S
O1103     Al1105   1.994       .  S
O1104      C1106   1.254       .  A
O1104     Al1105   1.911       .  S
Al1105     O1113   1.970       .  S
Al1105     O1115   1.975       .  S
Al1105     O1114   1.767       .  S
C1106      O1119   1.255       .  A
C1106      C4017   1.473       .  S
O1107      C1117   1.263       .  A
O1107     Al1109   1.883       .  S
O1108      C1121   1.257       .  A
O1108     Al1118   1.892       .  S
Al1109     O1122   1.891       .  S
Al1109     O1119   1.903       .  S
Al1109     O1114   1.763       .  S
O1110      C1117   1.263       .  A
O1110     Al1118   1.905       .  S
O1111      C1120   1.246       .  A
O1111     Al1118   1.869       .  S
O1112     Al1118   1.817       .  S
O1113      C1120   1.264       .  A
O1114     Al1118   1.804       .  S
O1115      C1116   1.278       .  A
C1116      C3857   1.473       .  S
C1117      C3014   1.454       .  S
C1120      C2994   1.508       .  S
C1121      O1122   1.262       .  A
C1121      C3007   1.446       .  S
O1123      C1138   1.255       .  A
O1123     Al1131   1.858       .  S
C1124      O1134   1.250       .  A
C1124      O1125   1.277       .  A
C1124      C3024   1.492       .  S
O1125     Al1127   1.980       .  S
O1126      C1128   1.259       .  A
O1126     Al1127   1.910       .  S
Al1127     O1135   1.945       .  S
Al1127     O1137   1.972       .  S
Al1127     O1136   1.776       .  S
C1128      O1141   1.261       .  A
C1128      C2984   1.472       .  S
O1129      C1139   1.260       .  A
O1129     Al1131   1.866       .  S
O1130      C1143   1.256       .  A
O1130     Al1140   1.884       .  S
Al1131     O1144   1.896       .  S
Al1131     O1141   1.922       .  S
Al1131     O1136   1.754       .  S
O1132      C1139   1.263       .  A
O1132     Al1140   1.911       .  S
O1133      C1142   1.261       .  A
O1133     Al1140   1.908       .  S
O1134     Al1140   1.830       .  S
O1135      C1142   1.267       .  A
O1136     Al1140   1.790       .  S
O1137      C1138   1.274       .  A
C1138      C3037   1.470       .  S
C1139      C4347   1.455       .  S
C1142      C2974   1.509       .  S
C1143      O1144   1.262       .  A
C1143      C4547   1.447       .  S
O1145      C1160   1.264       .  A
O1145     Al1153   1.886       .  S
C1146      O1156   1.262       .  A
C1146      O1147   1.263       .  A
C1146      C2954   1.511       .  S
O1147     Al1149   1.907       .  S
O1148      C1150   1.252       .  A
O1148     Al1149   1.877       .  S
Al1149     O1157   1.850       .  S
Al1149     O1159   1.901       .  S
Al1149     O1158   1.783       .  S
C1150      O1163   1.260       .  A
C1150      C4137   1.445       .  S
O1151      C1161   1.262       .  A
O1151     Al1153   1.879       .  S
O1152      C1165   1.261       .  A
O1152     Al1162   1.914   1_556  S
Al1153     O1166   1.896   1_554  S
Al1153     O1163   1.910       .  S
Al1153     O1158   1.757       .  S
O1154      C1161   1.275       .  A
O1154     Al1162   1.971       .  S
O1155      C1164   1.283       .  A
O1155     Al1162   2.003       .  S
O1156     Al1162   1.939       .  S
O1157      C1164   1.251       .  A
O1158     Al1162   1.782       .  S
O1159      C1160   1.262       .  A
C1160      C2934   1.458       .  S
C1161      C2964   1.483   1_554  S
C1164      C2927   1.506       .  S
C1165      O1166   1.259       .  A
C1165      C2944   1.460       .  S
O1167      C1182   1.263       .  A
O1167     Al1175   1.897       .  S
C1168      O1178   1.259       .  A
C1168      O1169   1.257       .  A
C1168      C2957   1.513       .  S
O1169     Al1171   1.894       .  S
O1170      C1172   1.253       .  A
O1170     Al1171   1.875       .  S
Al1171     O1179   1.852       .  S
Al1171     O1181   1.884       .  S
Al1171     O1180   1.796       .  S
C1172      O1185   1.260       .  A
C1172      C3537   1.450       .  S
O1173      C1183   1.260       .  A
O1173     Al1175   1.873       .  S
O1174      C1187   1.262       .  A
O1174     Al1184   1.921       .  S
Al1175     O1188   1.880       .  S
Al1175     O1185   1.896       .  S
Al1175     O1180   1.760       .  S
O1176      C1183   1.269       .  A
O1176     Al1184   1.944       .  S
O1177      C1186   1.281       .  A
O1177     Al1184   1.988       .  S
O1178     Al1184   1.942       .  S
O1179      C1186   1.254       .  A
O1180     Al1184   1.791       .  S
O1181      C1182   1.258       .  A
C1182      C2917   1.450       .  S
C1183      C3187   1.473       .  S
C1186      C4294   1.497       .  S
C1187      O1188   1.255       .  A
C1187      C2904   1.466       .  S
O1189      C1204   1.257       .  A
O1189     Al1197   1.878       .  S
C1190      O1200   1.265       .  A
C1190      O1191   1.269       .  A
C1190      C2894   1.519       .  S
O1191     Al1193   1.916       .  S
O1192      C1194   1.246       .  A
O1192     Al1193   1.843       .  S
Al1193     O1201   1.856       .  S
Al1193     O1203   1.893       .  S
Al1193     O1202   1.790       .  S
C1194      O1207   1.262       .  A
C1194      C2877   1.443       .  S
O1195      C1205   1.257       .  A
O1195     Al1197   1.883       .  S
O1196      C1209   1.266       .  A
O1196     Al1206   1.918       .  S
Al1197     O1210   1.907       .  S
Al1197     O1207   1.906       .  S
Al1197     O1202   1.754       .  S
O1198      C1205   1.270       .  A
O1198     Al1206   1.965       .  S
O1199      C1208   1.278       .  A
O1199     Al1206   1.994       .  S
O1200     Al1206   1.938       .  S
O1201      C1208   1.250       .  A
O1202     Al1206   1.793       .  S
O1203      C1204   1.258       .  A
C1204      C2884   1.440       .  S
C1205      C2864   1.485       .  S
C1208      C2844   1.499       .  S
C1209      O1210   1.264       .  A
C1209      C2854   1.466       .  S
O1211      C1226   1.261       .  A
O1211     Al1219   1.876       .  S
C1212      O1222   1.265       .  A
C1212      O1213   1.266       .  A
C1212      C2897   1.518       .  S
O1213     Al1215   1.911       .  S
O1214      C1216   1.246       .  A
O1214     Al1215   1.851       .  S
Al1215     O1223   1.849       .  S
Al1215     O1225   1.897       .  S
Al1215     O1224   1.788       .  S
C1216      O1229   1.259       .  A
C1216      C4644   1.447       .  S
O1217      C1227   1.257       .  A
O1217     Al1219   1.874       .  S
O1218      C1231   1.265       .  A
O1218     Al1228   1.921   1_655  S
Al1219     O1232   1.907   1_455  S
Al1219     O1229   1.901       .  S
Al1219     O1224   1.760       .  S
O1220      C1227   1.271       .  A
O1220     Al1228   1.962       .  S
O1221      C1230   1.278       .  A
O1221     Al1228   1.989       .  S
O1222     Al1228   1.943       .  S
O1223      C1230   1.250       .  A
O1224     Al1228   1.788       .  S
O1225      C1226   1.262       .  A
C1226      C4067   1.459       .  S
C1227      C4977   1.475   1_455  S
C1230      C2834   1.506       .  S
C1231      O1232   1.262       .  A
C1231      C3987   1.468       .  S
O1233      C1248   1.258       .  A
O1233     Al1241   1.859       .  S
C1234      O1244   1.263       .  A
C1234      O1235   1.287       .  A
C1234      C2827   1.496       .  S
O1235     Al1237   1.984       .  S
O1236      C1238   1.258       .  A
O1236     Al1237   1.927       .  S
Al1237     O1245   1.964       .  S
Al1237     O1247   1.935       .  S
Al1237     O1246   1.779       .  S
C1238      O1251   1.251       .  A
C1238      C4107   1.477       .  S
O1239      C1249   1.256       .  A
O1239     Al1241   1.896       .  S
O1240      C1253   1.269       .  A
O1240     Al1250   1.901       .  S
Al1241     O1254   1.890       .  S
Al1241     O1251   1.872       .  S
Al1241     O1246   1.757       .  S
O1242      C1249   1.251       .  A
O1242     Al1250   1.888       .  S
O1243      C1252   1.246       .  A
O1243     Al1250   1.884       .  S
O1244     Al1250   1.852       .  S
O1245      C1252   1.258       .  A
O1246     Al1250   1.805       .  S
O1247      C1248   1.268       .  A
C1248      C2804   1.466       .  S
C1249      C2937   1.447       .  S
C1252      C4617   1.511       .  S
C1253      O1254   1.268       .  A
C1253      C2814   1.455   1_554  S
O1255      C1270   1.258       .  A
O1255     Al1263   1.855       .  S
C1256      O1266   1.249       .  A
C1256      O1257   1.283       .  A
C1256      C2824   1.519       .  S
O1257     Al1259   1.995       .  S
O1258      C1260   1.257       .  A
O1258     Al1259   1.909       .  S
Al1259     O1267   1.958       .  S
Al1259     O1269   1.980       .  S
Al1259     O1268   1.765       .  S
C1260      O1273   1.260       .  A
C1260      C2794   1.473       .  S
O1261      C1271   1.264       .  A
O1261     Al1263   1.874       .  S
O1262      C1275   1.255       .  A
O1262     Al1272   1.891       .  S
Al1263     O1276   1.888       .  S
Al1263     O1273   1.921       .  S
Al1263     O1268   1.756       .  S
O1264      C1271   1.267       .  A
O1264     Al1272   1.921       .  S
O1265      C1274   1.255       .  A
O1265     Al1272   1.895       .  S
O1266     Al1272   1.825       .  S
O1267      C1274   1.266       .  A
O1268     Al1272   1.799       .  S
O1269      C1270   1.277       .  A
C1270      C2774   1.477       .  S
C1271      C2887   1.461       .  S
C1274      C3507   1.508       .  S
C1275      O1276   1.261       .  A
C1275      C2787   1.442       .  S
O1277      C1292   1.264       .  A
O1277     Al1285   1.876       .  S
C1278      O1288   1.262       .  A
C1278      O1279   1.265       .  A
C1278      C2764   1.504       .  S
O1279     Al1281   1.914       .  S
O1280      C1282   1.248       .  A
O1280     Al1281   1.863       .  S
Al1281     O1289   1.839       .  S
Al1281     O1291   1.912       .  S
Al1281     O1290   1.795       .  S
C1282      O1295   1.259       .  A
C1282      C2817   1.453       .  S
O1283      C1293   1.266       .  A
O1283     Al1285   1.890       .  S
O1284      C1297   1.263       .  A
O1284     Al1294   1.927       .  S
Al1285     O1298   1.901       .  S
Al1285     O1295   1.902       .  S
Al1285     O1290   1.762       .  S
O1286      C1293   1.273       .  A
O1286     Al1294   1.954       .  S
O1287      C1296   1.274       .  A
O1287     Al1294   1.982       .  S
O1288     Al1294   1.926       .  S
O1289      C1296   1.245       .  A
O1290     Al1294   1.783       .  S
O1291      C1292   1.268       .  A
C1292      C2754   1.452       .  S
C1293      C2947   1.477       .  S
C1296      C4507   1.496       .  S
C1297      O1298   1.257       .  A
C1297      C2744   1.469       .  S
O1299      C1314   1.256       .  A
O1299     Al1307   1.871       .  S
C1300      O1310   1.260       .  A
C1300      O1301   1.267       .  A
C1300      C2767   1.508       .  S
O1301     Al1303   1.921       .  S
O1302      C1304   1.250       .  A
O1302     Al1303   1.850       .  S
Al1303     O1311   1.856       .  S
Al1303     O1313   1.909       .  S
Al1303     O1312   1.798       .  S
C1304      O1317   1.268       .  A
C1304      C3067   1.446       .  S
O1305      C1315   1.261       .  A
O1305     Al1307   1.879       .  S
O1306      C1319   1.264       .  A
O1306     Al1316   1.915       .  S
Al1307     O1320   1.907       .  S
Al1307     O1317   1.931       .  S
Al1307     O1312   1.757       .  S
O1308      C1315   1.267       .  A
O1308     Al1316   1.943       .  S
O1309      C1318   1.278       .  A
O1309     Al1316   1.989       .  S
O1310     Al1316   1.928       .  S
O1311      C1318   1.251       .  A
O1312     Al1316   1.790       .  S
O1313      C1314   1.260       .  A
C1314      C4584   1.446       .  S
C1315      C3657   1.478       .  S
C1318      C2847   1.498       .  S
C1319      O1320   1.263       .  A
C1319      C3277   1.468       .  S
O1321      C1336   1.263       .  A
O1321     Al1329   1.889       .  S
C1322      O1332   1.255       .  A
C1322      O1323   1.263       .  A
C1322      C2734   1.504       .  S
O1323     Al1325   1.907       .  S
O1324      C1326   1.250       .  A
O1324     Al1325   1.853       .  S
Al1325     O1333   1.840       .  S
Al1325     O1335   1.908       .  S
Al1325     O1334   1.802       .  S
C1326      O1339   1.263       .  A
C1326      C2784   1.440       .  S
O1327      C1337   1.262       .  A
O1327     Al1329   1.883       .  S
O1328      C1341   1.258       .  A
O1328     Al1338   1.902       .  S
Al1329     O1342   1.900       .  S
Al1329     O1339   1.906       .  S
Al1329     O1334   1.756       .  S
O1330      C1337   1.270       .  A
O1330     Al1338   1.949       .  S
O1331      C1340   1.280       .  A
O1331     Al1338   1.988       .  S
O1332     Al1338   1.921       .  S
O1333      C1340   1.249       .  A
O1334     Al1338   1.792       .  S
O1335      C1336   1.262       .  A
C1336      C2724   1.458       .  S
C1337      C2857   1.481       .  S
C1340      C2707   1.508       .  S
C1341      O1342   1.259       .  A
C1341      C2714   1.462       .  S
O1343      C1358   1.257       .  A
O1343     Al1351   1.856       .  S
C1344      O1354   1.260       .  A
C1344      O1345   1.274       .  A
C1344      C2737   1.510       .  S
O1345     Al1347   1.930       .  S
O1346      C1348   1.245       .  A
O1346     Al1347   1.850       .  S
Al1347     O1355   1.845       .  S
Al1347     O1357   1.941       .  S
Al1347     O1356   1.783       .  S
C1348      O1361   1.264       .  A
C1348      C3914   1.449       .  S
O1349      C1359   1.264       .  A
O1349     Al1351   1.878       .  S
O1350      C1363   1.263       .  A
O1350     Al1360   1.915   1_556  S
Al1351     O1364   1.910   1_554  S
Al1351     O1361   1.938       .  S
Al1351     O1356   1.756       .  S
O1352      C1359   1.277       .  A
O1352     Al1360   1.972       .  S
O1353      C1362   1.278       .  A
O1353     Al1360   1.999       .  S
O1354     Al1360   1.917       .  S
O1355      C1362   1.245       .  A
O1356     Al1360   1.788       .  S
O1357      C1358   1.271       .  A
C1358      C3564   1.447       .  S
C1359      C4757   1.481       .  S
C1362      C2924   1.503       .  S
C1363      O1364   1.262       .  A
C1363      C3617   1.460       .  S
O1365      C1380   1.256       .  A
O1365     Al1373   1.854       .  S
C1366      O1376   1.256       .  A
C1366      O1367   1.285       .  A
C1366      C2694   1.515       .  S
O1367     Al1369   1.989       .  S
O1368      C1370   1.257       .  A
O1368     Al1369   1.914       .  S
Al1369     O1377   1.957       .  S
Al1369     O1379   1.965       .  S
Al1369     O1378   1.768       .  S
C1370      O1383   1.256       .  A
C1370      C3767   1.468       .  S
O1371      C1381   1.260       .  A
O1371     Al1373   1.871       .  S
O1372      C1385   1.264       .  A
O1372     Al1382   1.905   1_565  S
Al1373     O1386   1.883   1_545  S
Al1373     O1383   1.897       .  S
Al1373     O1378   1.749       .  S
O1374      C1381   1.262       .  A
O1374     Al1382   1.910       .  S
O1375      C1384   1.253       .  A
O1375     Al1382   1.891       .  S
O1376     Al1382   1.841       .  S
O1377      C1384   1.263       .  A
O1378     Al1382   1.802       .  S
O1379      C1380   1.274       .  A
C1380      C2677   1.470       .  S
C1381      C3704   1.446       .  S
C1384      C3887   1.505       .  S
C1385      O1386   1.265       .  A
C1385      C2684   1.453       .  S
O1387      C1402   1.264       .  A
O1387     Al1395   1.895       .  S
C1388      O1398   1.267       .  A
C1388      O1389   1.264       .  A
C1388      C2697   1.513       .  S
O1389     Al1391   1.946       .  S
O1390      C1392   1.266       .  A
O1390     Al1391   1.946       .  S
Al1391     O1399   1.983       .  S
Al1391     O1401   1.923       .  S
Al1391     O1400   1.796       .  S
C1392      O1405   1.259       .  A
C1392      C2777   1.478       .  S
O1393      C1403   1.259       .  A
O1393     Al1395   1.892       .  S
O1394      C1407   1.255       .  A
O1394     Al1404   1.880       .  S
Al1395     O1408   1.888       .  S
Al1395     O1405   1.888       .  S
Al1395     O1400   1.750       .  S
O1396      C1403   1.255       .  A
O1396     Al1404   1.887       .  S
O1397      C1406   1.252       .  A
O1397     Al1404   1.876       .  S
O1398     Al1404   1.908       .  S
O1399      C1406   1.277       .  A
O1400     Al1404   1.789       .  S
O1401      C1402   1.267       .  A
C1402      C2654   1.469       .  S
C1403      C2727   1.449       .  S
C1406      C3427   1.493       .  S
C1407      O1408   1.260       .  A
C1407      C2664   1.438       .  S
O1409      C1424   1.262       .  A
O1409     Al1417   1.872       .  S
C1410      O1420   1.261       .  A
C1410      O1411   1.263       .  A
C1410      C2644   1.508       .  S
O1411     Al1413   1.914       .  S
O1412      C1414   1.250       .  A
O1412     Al1413   1.871       .  S
Al1413     O1421   1.848       .  S
Al1413     O1423   1.923       .  S
Al1413     O1422   1.801       .  S
C1414      O1427   1.262       .  A
C1414      C2687   1.455       .  S
O1415      C1425   1.267       .  A
O1415     Al1417   1.897       .  S
O1416      C1429   1.263       .  A
O1416     Al1426   1.925       .  S
Al1417     O1430   1.886       .  S
Al1417     O1427   1.912       .  S
Al1417     O1422   1.761       .  S
O1418      C1425   1.270       .  A
O1418     Al1426   1.944       .  S
O1419      C1428   1.277       .  A
O1419     Al1426   1.987       .  S
O1420     Al1426   1.933       .  S
O1421      C1428   1.249       .  A
O1422     Al1426   1.785       .  S
O1423      C1424   1.266       .  A
C1424      C2634   1.456       .  S
C1425      C3717   1.478       .  S
C1428      C4334   1.503       .  S
C1429      O1430   1.257       .  A
C1429      C2624   1.466       .  S
O1431      C1446   1.260       .  A
O1431     Al1439   1.879       .  S
C1432      O1442   1.258       .  A
C1432      O1433   1.265       .  A
C1432      C2647   1.503       .  S
O1433     Al1435   1.922       .  S
O1434      C1436   1.253       .  A
O1434     Al1435   1.859       .  S
Al1435     O1443   1.845       .  S
Al1435     O1445   1.905       .  S
Al1435     O1444   1.799       .  S
C1436      O1449   1.263       .  A
C1436      C3004   1.444       .  S
O1437      C1447   1.259       .  A
O1437     Al1439   1.877       .  S
O1438      C1451   1.262       .  A
O1438     Al1448   1.918       .  S
Al1439     O1452   1.899       .  S
Al1439     O1449   1.902       .  S
Al1439     O1444   1.755       .  S
O1440      C1447   1.270       .  A
O1440     Al1448   1.954       .  S
O1441      C1450   1.278       .  A
O1441     Al1448   1.984       .  S
O1442     Al1448   1.923       .  S
O1443      C1450   1.248       .  A
O1444     Al1448   1.786       .  S
O1445      C1446   1.262       .  A
C1446      C3867   1.456       .  S
C1447      C2614   1.476       .  S
C1450      C2704   1.488       .  S
C1451      O1452   1.260       .  A
C1451      C3087   1.468       .  S
O1453      C1468   1.259       .  A
O1453     Al1461   1.866       .  S
C1454      O1464   1.252       .  A
C1454      O1455   1.282       .  A
C1454      C2604   1.519       .  S
O1455     Al1457   1.986       .  S
O1456      C1458   1.253       .  A
O1456     Al1457   1.894       .  S
Al1457     O1465   1.942       .  S
Al1457     O1467   1.977       .  S
Al1457     O1466   1.768       .  S
C1458      O1471   1.261       .  A
C1458      C2597   1.467       .  S
O1459      C1469   1.263       .  A
O1459     Al1461   1.876       .  S
O1460      C1473   1.257       .  A
O1460     Al1470   1.894       .  S
Al1461     O1474   1.898       .  S
Al1461     O1471   1.925       .  S
Al1461     O1466   1.760       .  S
O1462      C1469   1.266       .  A
O1462     Al1470   1.916       .  S
O1463      C1472   1.257       .  A
O1463     Al1470   1.906       .  S
O1464     Al1470   1.841       .  S
O1465      C1472   1.263       .  A
O1466     Al1470   1.799       .  S
O1467      C1468   1.277       .  A
C1468      C2574   1.480       .  S
C1469      C2567   1.463       .  S
C1472      C2977   1.499       .  S
C1473      O1474   1.262       .  A
C1473      C2584   1.446       .  S
O1475      C1490   1.258       .  A
O1475     Al1483   1.865       .  S
C1476      O1486   1.249       .  A
C1476      O1477   1.279       .  A
C1476      C2607   1.493       .  S
O1477     Al1479   1.986       .  S
O1478      C1480   1.260       .  A
O1478     Al1479   1.910       .  S
Al1479     O1487   1.950       .  S
Al1479     O1489   1.972       .  S
Al1479     O1488   1.773       .  S
C1480      O1493   1.264       .  A
C1480      C2554   1.474       .  S
O1481      C1491   1.261       .  A
O1481     Al1483   1.871       .  S
O1482      C1495   1.255       .  A
O1482     Al1492   1.885       .  S
Al1483     O1496   1.909       .  S
Al1483     O1493   1.930       .  S
Al1483     O1488   1.754       .  S
O1484      C1491   1.264       .  A
O1484     Al1492   1.908       .  S
O1485      C1494   1.261       .  A
O1485     Al1492   1.910       .  S
O1486     Al1492   1.832       .  S
O1487      C1494   1.267       .  A
O1488     Al1492   1.786       .  S
O1489      C1490   1.275       .  A
C1490      C3117   1.480       .  S
C1491      C4497   1.458       .  S
C1494      C2544   1.514       .  S
C1495      O1496   1.263       .  A
C1495      C3364   1.445       .  S
O1497      C1512   1.253       .  A
O1497     Al1505   1.853       .  S
C1498      O1508   1.253       .  A
C1498      O1499   1.280       .  A
C1498      C2537   1.491       .  S
O1499     Al1501   1.981       .  S
O1500      C1502   1.259       .  A
O1500     Al1501   1.912       .  S
Al1501     O1509   1.950       .  S
Al1501     O1511   1.961       .  S
Al1501     O1510   1.774       .  S
C1502      O1515   1.260       .  A
C1502      C2494   1.472       .  S
O1503      C1513   1.259       .  A
O1503     Al1505   1.872       .  S
O1504      C1517   1.259       .  A
O1504     Al1514   1.889       .  S
Al1505     O1518   1.887       .  S
Al1505     O1515   1.911       .  S
Al1505     O1510   1.752       .  S
O1506      C1513   1.264       .  A
O1506     Al1514   1.923       .  S
O1507      C1516   1.259       .  A
O1507     Al1514   1.913       .  S
O1508     Al1514   1.834       .  S
O1509      C1516   1.265       .  A
O1510     Al1514   1.794       .  S
O1511      C1512   1.271       .  A
C1512      C2504   1.466       .  S
C1513      C2527   1.468       .  S
C1516      C2547   1.508       .  S
C1517      O1518   1.264       .  A
C1517      C2514   1.451       .  S
O1519      C1534   1.255   1_565  A
O1519     Al1527   1.852       .  S
C1520      O1530   1.246       .  A
C1520      O1521   1.285       .  A
C1520      C2534   1.518       .  S
O1521     Al1523   1.998       .  S
O1522      C1524   1.254       .  A
O1522     Al1523   1.901       .  S
Al1523     O1531   1.965       .  S
Al1523     O1533   1.985   1_565  S
Al1523     O1532   1.765       .  S
C1524      O1537   1.261       .  A
C1524      C3477   1.473       .  S
O1525      C1535   1.263       .  A
O1525     Al1527   1.875       .  S
O1526      C1539   1.257       .  A
O1526     Al1536   1.892       .  S
Al1527     O1540   1.896       .  S
Al1527     O1537   1.927       .  S
Al1527     O1532   1.758       .  S
O1528      C1535   1.265       .  A
O1528     Al1536   1.909       .  S
O1529      C1538   1.250       .  A
O1529     Al1536   1.879       .  S
O1530     Al1536   1.809       .  S
O1531      C1538   1.266       .  A
O1532     Al1536   1.796       .  S
O1533      C1534   1.280       .  A
C1534      C4257   1.473       .  S
C1535      C3394   1.456       .  S
C1538      C2484   1.507       .  S
C1539      O1540   1.263       .  A
C1539      C4797   1.446       .  S
O1541      C1556   1.257       .  A
O1541     Al1549   1.856       .  S
C1542      O1552   1.251       .  A
C1542      O1543   1.282       .  A
C1542      C2474   1.516       .  S
O1543     Al1545   1.984       .  S
O1544      C1546   1.254       .  A
O1544     Al1545   1.899       .  S
Al1545     O1553   1.945       .  S
Al1545     O1555   1.965       .  S
Al1545     O1554   1.769       .  S
C1546      O1559   1.258       .  A
C1546      C3197   1.465       .  S
O1547      C1557   1.262       .  A
O1547     Al1549   1.868       .  S
O1548      C1561   1.257       .  A
O1548     Al1558   1.895       .  S
Al1549     O1562   1.884       .  S
Al1549     O1559   1.912       .  S
Al1549     O1554   1.756       .  S
O1550      C1557   1.266       .  A
O1550     Al1558   1.925       .  S
O1551      C1560   1.253       .  A
O1551     Al1558   1.891       .  S
O1552     Al1558   1.830       .  S
O1553      C1560   1.262       .  A
O1554     Al1558   1.803       .  S
O1555      C1556   1.275       .  A
C1556      C4164   1.470       .  S
C1557      C4847   1.457       .  S
C1560      C2997   1.492       .  S
C1561      O1562   1.261       .  A
C1561      C4327   1.442       .  S
O1563      C1578   1.259   1_565  A
O1563     Al1571   1.859       .  S
C1564      O1574   1.256       .  A
C1564      O1565   1.283       .  A
C1564      C2477   1.492       .  S
O1565     Al1567   1.982       .  S
O1566      C1568   1.254       .  A
O1566     Al1567   1.899       .  S
Al1567     O1575   1.939       .  S
Al1567     O1577   1.945   1_565  S
Al1567     O1576   1.778       .  S
C1568      O1581   1.256       .  A
C1568      C2674   1.467       .  S
O1569      C1579   1.259       .  A
O1569     Al1571   1.895       .  S
O1570      C1583   1.263       .  A
O1570     Al1580   1.889       .  S
Al1571     O1584   1.908       .  S
Al1571     O1581   1.897       .  S
Al1571     O1576   1.755       .  S
O1572      C1579   1.256       .  A
O1572     Al1580   1.900       .  S
O1573      C1582   1.252       .  A
O1573     Al1580   1.897       .  S
O1574     Al1580   1.831       .  S
O1575      C1582   1.257       .  A
O1576     Al1580   1.802       .  S
O1577      C1578   1.269       .  A
C1578      C3757   1.471       .  S
C1579      C2637   1.455       .  S
C1582      C2487   1.496       .  S
C1583      O1584   1.269       .  A
C1583      C2464   1.448       .  S
O1585      C1600   1.265       .  A
O1585     Al1593   1.880       .  S
C1586      O1596   1.258       .  A
C1586      O1587   1.259       .  A
C1586      C2457   1.500       .  S
O1587     Al1589   1.904       .  S
O1588      C1590   1.252       .  A
O1588     Al1589   1.884       .  S
Al1589     O1597   1.846       .  S
Al1589     O1599   1.916       .  S
Al1589     O1598   1.793       .  S
C1590      O1603   1.261       .  A
C1590      C2467   1.456       .  S
O1591      C1601   1.266       .  A
O1591     Al1593   1.885       .  S
O1592      C1605   1.259       .  A
O1592     Al1602   1.916       .  S
Al1593     O1606   1.897       .  S
Al1593     O1603   1.915       .  S
Al1593     O1598   1.759       .  S
O1594      C1601   1.274       .  A
O1594     Al1602   1.956       .  S
O1595      C1604   1.279       .  A
O1595     Al1602   1.992       .  S
O1596     Al1602   1.924       .  S
O1597      C1604   1.250       .  A
O1598     Al1602   1.782       .  S
O1599      C1600   1.267       .  A
C1600      C3774   1.453   1_565  S
C1601      C2627   1.480       .  S
C1604      C3607   1.507       .  S
C1605      O1606   1.257       .  A
C1605      C3734   1.466       .  S
O1607      C1622   1.258       .  A
O1607     Al1615   1.873       .  S
C1608      O1618   1.259       .  A
C1608      O1609   1.274       .  A
C1608      C2454   1.508       .  S
O1609     Al1611   1.934       .  S
O1610      C1612   1.248       .  A
O1610     Al1611   1.848       .  S
Al1611     O1619   1.860       .  S
Al1611     O1621   1.920       .  S
Al1611     O1620   1.789       .  S
C1612      O1625   1.261       .  A
C1612      C2444   1.443       .  S
O1613      C1623   1.258       .  A
O1613     Al1615   1.877       .  S
O1614      C1627   1.262       .  A
O1614     Al1624   1.905       .  S
Al1615     O1628   1.899       .  S
Al1615     O1625   1.903       .  S
Al1615     O1620   1.756       .  S
O1616      C1623   1.273       .  A
O1616     Al1624   1.972       .  S
O1617      C1626   1.278       .  A
O1617     Al1624   1.997       .  S
O1618     Al1624   1.915       .  S
O1619      C1626   1.248       .  A
O1620     Al1624   1.795       .  S
O1621      C1622   1.264       .  A
C1622      C2524   1.448       .  S
C1623      C2434   1.483       .  S
C1626      C4827   1.506       .  S
C1627      O1628   1.262       .  A
C1627      C2424   1.455       .  S
O1629      C1644   1.257       .  A
O1629     Al1637   1.857       .  S
C1630      O1640   1.252       .  A
C1630      O1631   1.283       .  A
C1630      C2414   1.500       .  S
O1631     Al1633   1.994       .  S
O1632      C1634   1.258       .  A
O1632     Al1633   1.917       .  S
Al1633     O1641   1.979       .  S
Al1633     O1643   1.959       .  S
Al1633     O1642   1.773       .  S
C1634      O1647   1.257       .  A
C1634      C3127   1.473       .  S
O1635      C1645   1.260       .  A
O1635     Al1637   1.890       .  S
O1636      C1649   1.256       .  A
O1636     Al1646   1.870       .  S
Al1637     O1650   1.912       .  S
Al1637     O1647   1.902       .  S
Al1637     O1642   1.762       .  S
O1638      C1645   1.257       .  A
O1638     Al1646   1.887       .  S
O1639      C1648   1.252       .  A
O1639     Al1646   1.891       .  S
O1640     Al1646   1.822       .  S
O1641      C1648   1.268       .  A
O1642     Al1646   1.791       .  S
O1643      C1644   1.274       .  A
C1644      C2557   1.466       .  S
C1645      C4687   1.453       .  S
C1648      C3054   1.515       .  S
C1649      O1650   1.266       .  A
C1649      C4487   1.441       .  S
O1651      C1666   1.257       .  A
O1651     Al1659   1.861   1_554  S
C1652      O1662   1.249       .  A
C1652      O1653   1.287       .  A
C1652      C2417   1.522       .  S
O1653     Al1655   2.005       .  S
O1654      C1656   1.252       .  A
O1654     Al1655   1.889       .  S
Al1655     O1663   1.958       .  S
Al1655     O1665   1.970   1_556  S
Al1655     O1664   1.772       .  S
C1656      O1669   1.262       .  A
C1656      C2807   1.467   1_556  S
O1657      C1667   1.259       .  A
O1657     Al1659   1.880       .  S
O1658      C1671   1.258       .  A
O1658     Al1668   1.880       .  S
Al1659     O1672   1.913       .  S
Al1659     O1669   1.919       .  S
Al1659     O1664   1.754       .  S
O1660      C1667   1.261       .  A
O1660     Al1668   1.915       .  S
O1661      C1670   1.252       .  A
O1661     Al1668   1.892       .  S
O1662     Al1668   1.815       .  S
O1663      C1670   1.262       .  A
O1664     Al1668   1.801       .  S
O1665      C1666   1.276       .  A
C1666      C4114   1.476       .  S
C1667      C2757   1.451       .  S
C1670      C2394   1.509       .  S
C1671      O1672   1.268       .  A
C1671      C2404   1.443       .  S
O1673      C1688   1.255       .  A
O1673     Al1681   1.853       .  S
C1674      O1684   1.254       .  A
C1674      O1675   1.284       .  A
C1674      C2384   1.518       .  S
O1675     Al1677   1.989       .  S
O1676      C1678   1.256       .  A
O1676     Al1677   1.906       .  S
Al1677     O1685   1.960       .  S
Al1677     O1687   1.969       .  S
Al1677     O1686   1.773       .  S
C1678      O1691   1.259       .  A
C1678      C2364   1.471       .  S
O1679      C1689   1.260       .  A
O1679     Al1681   1.866       .  S
O1680      C1693   1.259       .  A
O1680     Al1690   1.896       .  S
Al1681     O1694   1.885       .  S
Al1681     O1691   1.913       .  S
Al1681     O1686   1.755       .  S
O1682      C1689   1.262       .  A
O1682     Al1690   1.918       .  S
O1683      C1692   1.255       .  A
O1683     Al1690   1.896       .  S
O1684     Al1690   1.844       .  S
O1685      C1692   1.265       .  A
O1686     Al1690   1.807       .  S
O1687      C1688   1.274       .  A
C1688      C2497   1.480       .  S
C1689      C2377   1.457       .  S
C1692      C3794   1.512       .  S
C1693      O1694   1.263       .  A
C1693      C2447   1.443       .  S
O1695      C1710   1.259       .  A
O1695     Al1703   1.863   1_554  S
C1696      O1706   1.253       .  A
C1696      O1697   1.282       .  A
C1696      C2387   1.491       .  S
O1697     Al1699   1.978       .  S
O1698      C1700   1.256   1_556  A
O1698     Al1699   1.910       .  S
Al1699     O1707   1.959       .  S
Al1699     O1709   1.943   1_556  S
Al1699     O1708   1.775       .  S
C1700      O1713   1.257       .  A
C1700      C3557   1.473       .  S
O1701      C1711   1.261       .  A
O1701     Al1703   1.893       .  S
O1702      C1715   1.263       .  A
O1702     Al1712   1.898       .  S
Al1703     O1716   1.898       .  S
Al1703     O1713   1.901   1_556  S
Al1703     O1708   1.756       .  S
O1704      C1711   1.258       .  A
O1704     Al1712   1.898       .  S
O1705      C1714   1.253       .  A
O1705     Al1712   1.895       .  S
O1706     Al1712   1.831       .  S
O1707      C1714   1.262       .  A
O1708     Al1712   1.799       .  S
O1709      C1710   1.271       .  A
C1710      C3897   1.468       .  S
C1711      C3634   1.458       .  S
C1714      C2397   1.510       .  S
C1715      O1716   1.266       .  A
C1715      C4737   1.447       .  S
O1717      C1732   1.258       .  A
O1717     Al1725   1.871       .  S
C1718      O1728   1.266       .  A
C1718      O1719   1.272       .  A
C1718      C2354   1.527       .  S
O1719     Al1721   1.922       .  S
O1720      C1722   1.243       .  A
O1720     Al1721   1.841       .  S
Al1721     O1729   1.859       .  S
Al1721     O1731   1.903       .  S
Al1721     O1730   1.783       .  S
C1722      O1735   1.260       .  A
C1722      C2407   1.442       .  S
O1723      C1733   1.258       .  A
O1723     Al1725   1.883       .  S
O1724      C1737   1.270       .  A
O1724     Al1734   1.930       .  S
Al1725     O1738   1.917       .  S
Al1725     O1735   1.916       .  S
Al1725     O1730   1.758       .  S
O1726      C1733   1.270       .  A
O1726     Al1734   1.961       .  S
O1727      C1736   1.278       .  A
O1727     Al1734   2.000       .  S
O1728     Al1734   1.945       .  S
O1729      C1736   1.249       .  A
O1730     Al1734   1.788       .  S
O1731      C1732   1.262       .  A
C1732      C4127   1.437   1_556  S
C1733      C2747   1.475       .  S
C1736      C3957   1.507       .  S
C1737      O1738   1.265       .  A
C1737      C2967   1.474       .  S
O1739      C1754   1.259       .  A
O1739     Al1747   1.883       .  S
C1740      O1750   1.264       .  A
C1740      O1741   1.263       .  A
C1740      C2357   1.528       .  S
O1741     Al1743   1.905       .  S
O1742      C1744   1.248       .  A
O1742     Al1743   1.854       .  S
Al1743     O1751   1.849       .  S
Al1743     O1753   1.889       .  S
Al1743     O1752   1.795       .  S
C1744      O1757   1.261       .  A
C1744      C2344   1.441       .  S
O1745      C1755   1.258       .  A
O1745     Al1747   1.872       .  S
O1746      C1759   1.267       .  A
O1746     Al1756   1.937       .  S
Al1747     O1760   1.889       .  S
Al1747     O1757   1.895       .  S
Al1747     O1752   1.756       .  S
O1748      C1755   1.271       .  A
O1748     Al1756   1.961       .  S
O1749      C1758   1.283       .  A
O1749     Al1756   2.003       .  S
O1750     Al1756   1.959       .  S
O1751      C1758   1.251       .  A
O1752     Al1756   1.783       .  S
O1753      C1754   1.259       .  A
C1754      C2374   1.440       .  S
C1755      C2334   1.477       .  S
C1758      C4667   1.504       .  S
C1759      O1760   1.257       .  A
C1759      C2437   1.474       .  S
O1761      C1776   1.262       .  A
O1761     Al1769   1.865       .  S
C1762      O1772   1.252       .  A
C1762      O1763   1.279       .  A
C1762      C2324   1.518       .  S
O1763     Al1765   1.971       .  S
O1764      C1766   1.248       .  A
O1764     Al1765   1.895       .  S
Al1765     O1773   1.948       .  S
Al1765     O1775   1.970       .  S
Al1765     O1774   1.771       .  S
C1766      O1779   1.253       .  A
C1766      C2507   1.466       .  S
O1767      C1777   1.265       .  A
O1767     Al1769   1.888       .  S
O1768      C1781   1.254       .  A
O1768     Al1778   1.888       .  S
Al1769     O1782   1.882       .  S
Al1769     O1779   1.902       .  S
Al1769     O1774   1.769       .  S
O1770      C1777   1.265       .  A
O1770     Al1778   1.912       .  S
O1771      C1780   1.248       .  A
O1771     Al1778   1.873       .  S
O1772     Al1778   1.844       .  S
O1773      C1780   1.262       .  A
O1774     Al1778   1.809       .  S
O1775      C1776   1.279       .  A
C1776      C2367   1.476       .  S
C1777      C2317   1.459       .  S
C1780      C4147   1.493       .  S
C1781      O1782   1.258       .  A
C1781      C2347   1.445       .  S
O1783      C1798   1.254       .  A
O1783     Al1791   1.844   1_455  S
C1784      O1794   1.254       .  A
C1784      O1785   1.284       .  A
C1784      C2327   1.498       .  S
O1785     Al1787   1.998       .  S
O1786      C1788   1.257   1_655  A
O1786     Al1787   1.912       .  S
Al1787     O1795   1.960       .  S
Al1787     O1797   1.967   1_655  S
Al1787     O1796   1.776       .  S
C1788      O1801   1.256       .  A
C1788      C4057   1.468       .  S
O1789      C1799   1.259       .  A
O1789     Al1791   1.883       .  S
O1790      C1803   1.264       .  A
O1790     Al1800   1.899       .  S
Al1791     O1804   1.886       .  S
Al1791     O1801   1.893   1_655  S
Al1791     O1796   1.754       .  S
O1792      C1799   1.257       .  A
O1792     Al1800   1.896       .  S
O1793      C1802   1.251       .  A
O1793     Al1800   1.893       .  S
O1794     Al1800   1.820       .  S
O1795      C1802   1.263       .  A
O1796     Al1800   1.796       .  S
O1797      C1798   1.273       .  A
C1798      C4627   1.473       .  S
C1799      C3964   1.440       .  S
C1802      C2304   1.507       .  S
C1803      O1804   1.265       .  A
C1803      C4957   1.454       .  S
O1805      C1820   1.257       .  A
O1805     Al1813   1.874       .  S
C1806      O1816   1.260       .  A
C1806      O1807   1.267       .  A
C1806      C2294   1.509       .  S
O1807     Al1809   1.924       .  S
O1808      C1810   1.253       .  A
O1808     Al1809   1.860       .  S
Al1809     O1817   1.860       .  S
Al1809     O1819   1.904       .  S
Al1809     O1818   1.800       .  S
C1810      O1823   1.265       .  A
C1810      C2284   1.446       .  S
O1811      C1821   1.260       .  A
O1811     Al1813   1.877       .  S
O1812      C1825   1.264       .  A
O1812     Al1822   1.920       .  S
Al1813     O1826   1.897       .  S
Al1813     O1823   1.912       .  S
Al1813     O1818   1.756       .  S
O1814      C1821   1.267       .  A
O1814     Al1822   1.943       .  S
O1815      C1824   1.278       .  A
O1815     Al1822   1.984       .  S
O1816     Al1822   1.929       .  S
O1817      C1824   1.251       .  A
O1818     Al1822   1.791       .  S
O1819      C1820   1.259       .  A
C1820      C2564   1.442   1_655  S
C1821      C2264   1.474       .  S
C1824      C3384   1.497       .  S
C1825      O1826   1.261       .  A
C1825      C2274   1.468       .  S
O1827      C1842   1.265       .  A
O1827     Al1835   1.886       .  S
C1828      O1838   1.260       .  A
C1828      O1829   1.260       .  A
C1828      C2297   1.506       .  S
O1829     Al1831   1.908       .  S
O1830      C1832   1.252       .  A
O1830     Al1831   1.875       .  S
Al1831     O1839   1.839       .  S
Al1831     O1841   1.910       .  S
Al1831     O1840   1.800       .  S
C1832      O1845   1.260       .  A
C1832      C2517   1.453       .  S
O1833      C1843   1.266       .  A
O1833     Al1835   1.886       .  S
O1834      C1847   1.262       .  A
O1834     Al1844   1.926       .  S
Al1835     O1848   1.893       .  S
Al1835     O1845   1.901       .  S
Al1835     O1840   1.760       .  S
O1836      C1843   1.269       .  A
O1836     Al1844   1.933       .  S
O1837      C1846   1.276       .  A
O1837     Al1844   1.980       .  S
O1838     Al1844   1.934       .  S
O1839      C1846   1.249       .  A
O1840     Al1844   1.784       .  S
O1841      C1842   1.265       .  A
C1842      C2314   1.452       .  S
C1843      C2427   1.472       .  S
C1846      C4887   1.498       .  S
C1847      O1848   1.256       .  A
C1847      C2337   1.471       .  S
O1849      C1864   1.257       .  A
O1849     Al1857   1.855       .  S
C1850      O1860   1.252       .  A
C1850      O1851   1.282       .  A
C1850      C2254   1.518       .  S
O1851     Al1853   1.978       .  S
O1852      C1854   1.250       .  A
O1852     Al1853   1.892       .  S
Al1853     O1861   1.937       .  S
Al1853     O1863   1.959       .  S
Al1853     O1862   1.772       .  S
C1854      O1867   1.257       .  A
C1854      C3297   1.467       .  S
O1855      C1865   1.259       .  A
O1855     Al1857   1.862       .  S
O1856      C1869   1.255       .  A
O1856     Al1866   1.878       .  S
Al1857     O1870   1.894       .  S
Al1857     O1867   1.910       .  S
Al1857     O1862   1.758       .  S
O1858      C1865   1.264       .  A
O1858     Al1866   1.919       .  S
O1859      C1868   1.250       .  A
O1859     Al1866   1.882       .  S
O1860     Al1866   1.829       .  S
O1861      C1868   1.259       .  A
O1862     Al1866   1.810       .  S
O1863      C1864   1.274       .  A
C1864      C3817   1.463       .  S
C1865      C4907   1.451       .  S
C1868      C2244   1.484       .  S
C1869      O1870   1.262       .  A
C1869      C4397   1.441       .  S
O1871      C1886   1.255       .  A
O1871     Al1879   1.861   1_455  S
C1872      O1882   1.248       .  A
C1872      O1873   1.281       .  A
C1872      C2257   1.501       .  S
O1873     Al1875   1.989       .  S
O1874      C1876   1.255       .  A
O1874     Al1875   1.894       .  S
Al1875     O1883   1.945       .  S
Al1875     O1885   1.968   1_655  S
Al1875     O1884   1.777       .  S
C1876      O1889   1.263       .  A
C1876      C2224   1.465   1_655  S
O1877      C1887   1.261       .  A
O1877     Al1879   1.877       .  S
O1878      C1891   1.257       .  A
O1878     Al1888   1.891       .  S
Al1879     O1892   1.903       .  S
Al1879     O1889   1.924       .  S
Al1879     O1884   1.755       .  S
O1880      C1887   1.262       .  A
O1880     Al1888   1.910       .  S
O1881      C1890   1.258       .  A
O1881     Al1888   1.905       .  S
O1882     Al1888   1.812       .  S
O1883      C1890   1.264       .  A
O1884     Al1888   1.788       .  S
O1885      C1886   1.274       .  A
C1886      C2594   1.469       .  S
C1887      C2234   1.443       .  S
C1890      C2307   1.506       .  S
C1891      O1892   1.263       .  A
C1891      C2287   1.447       .  S
O1893      C1908   1.261       .  A
O1893     Al1901   1.878       .  S
C1894      O1904   1.263       .  A
C1894      O1895   1.266       .  A
C1894      C2217   1.519       .  S
O1895     Al1897   1.912       .  S
O1896      C1898   1.244       .  A
O1896     Al1897   1.844       .  S
Al1897     O1905   1.851       .  S
Al1897     O1907   1.896       .  S
Al1897     O1906   1.790       .  S
C1898      O1911   1.260       .  A
C1898      C2587   1.443       .  S
O1899      C1909   1.258       .  A
O1899     Al1901   1.874       .  S
O1900      C1913   1.267       .  A
O1900     Al1910   1.929   1_655  S
Al1901     O1914   1.907   1_455  S
Al1901     O1911   1.906       .  S
Al1901     O1906   1.759       .  S
O1902      C1909   1.271   1_655  A
O1902     Al1910   1.960   1_655  S
O1903      C1912   1.277       .  A
O1903     Al1910   1.988       .  S
O1904     Al1910   1.938       .  S
O1905      C1912   1.248       .  A
O1906     Al1910   1.789       .  S
O1907      C1908   1.262       .  A
C1908      C2197   1.453       .  S
C1909      C2277   1.479   1_455  S
C1912      C2837   1.488       .  S
C1913      O1914   1.261       .  A
C1913      C2204   1.473       .  S
O1915      C1930   1.261       .  A
O1915     Al1923   1.884       .  S
C1916      O1926   1.263       .  A
C1916      O1917   1.266       .  A
C1916      C2214   1.520       .  S
O1917     Al1919   1.912       .  S
O1918      C1920   1.246       .  A
O1918     Al1919   1.844       .  S
Al1919     O1927   1.854       .  S
Al1919     O1929   1.893       .  S
Al1919     O1928   1.788       .  S
C1920      O1933   1.261       .  A
C1920      C4024   1.442       .  S
O1921      C1931   1.260       .  A
O1921     Al1923   1.883       .  S
O1922      C1935   1.264       .  A
O1922     Al1932   1.914       .  S
Al1923     O1936   1.906       .  S
Al1923     O1933   1.918       .  S
Al1923     O1928   1.758       .  S
O1924      C1931   1.271       .  A
O1924     Al1932   1.958       .  S
O1925      C1934   1.281       .  A
O1925     Al1932   1.999       .  S
O1926     Al1932   1.940       .  S
O1927      C1934   1.250       .  A
O1928     Al1932   1.790       .  S
O1929      C1930   1.259       .  A
C1930      C3017   1.444       .  S
C1931      C3107   1.480       .  S
C1934      C4467   1.508       .  S
C1935      O1936   1.262       .  A
C1935      C2617   1.464       .  S
O1937      C1952   1.266       .  A
O1937     Al1945   1.869       .  S
C1938      O1948   1.248       .  A
C1938      O1939   1.277       .  A
C1938      C2184   1.522       .  S
O1939     Al1941   1.982       .  S
O1940      C1942   1.248       .  A
O1940     Al1941   1.906       .  S
Al1941     O1949   1.975       .  S
Al1941     O1951   1.971       .  S
Al1941     O1950   1.776       .  S
C1942      O1955   1.247       .  A
C1942      C3514   1.468       .  S
O1943      C1953   1.265       .  A
O1943     Al1945   1.881       .  S
O1944      C1957   1.244       .  A
O1944     Al1954   1.867       .  S
Al1945     O1958   1.877       .  S
Al1945     O1955   1.883       .  S
Al1945     O1950   1.773       .  S
O1946      C1953   1.263       .  A
O1946     Al1954   1.900       .  S
O1947      C1956   1.241       .  A
O1947     Al1954   1.829       .  S
O1948     Al1954   1.843       .  S
O1949      C1956   1.267       .  A
O1950     Al1954   1.811       .  S
O1951      C1952   1.282       .  A
C1952      C4217   1.479       .  S
C1953      C2914   1.453       .  S
C1956      C2247   1.499       .  S
C1957      O1958   1.252       .  A
C1957      C2174   1.438       .  S
O1959      C1974   1.255       .  A
O1959     Al1967   1.855       .  S
C1960      O1970   1.256       .  A
C1960      O1961   1.286       .  A
C1960      C2187   1.515       .  S
O1961     Al1963   2.000       .  S
O1962      C1964   1.257       .  A
O1962     Al1963   1.907       .  S
Al1963     O1971   1.969       .  S
Al1963     O1973   1.961       .  S
Al1963     O1972   1.775       .  S
C1964      O1977   1.258       .  A
C1964      C3047   1.466       .  S
O1965      C1975   1.256       .  A
O1965     Al1967   1.871       .  S
O1966      C1979   1.264       .  A
O1966     Al1976   1.898       .  S
Al1967     O1980   1.893       .  S
Al1967     O1977   1.895       .  S
Al1967     O1972   1.748       .  S
O1968      C1975   1.257       .  A
O1968     Al1976   1.907       .  S
O1969      C1978   1.252       .  A
O1969     Al1976   1.890       .  S
O1970     Al1976   1.833       .  S
O1971      C1978   1.265       .  A
O1972     Al1976   1.800       .  S
O1973      C1974   1.272       .  A
C1974      C2987   1.472       .  S
C1975      C4437   1.443       .  S
C1978      C4094   1.508       .  S
C1979      O1980   1.268       .  A
C1979      C4357   1.454       .  S
O1981      C1996   1.257       .  A
O1981     Al1989   1.851       .  S
C1982      O1992   1.259       .  A
C1982      O1983   1.285       .  A
C1982      C2164   1.491       .  S
O1983     Al1985   1.985       .  S
O1984      C1986   1.258       .  A
O1984     Al1985   1.920       .  S
Al1985     O1993   1.962       .  S
Al1985     O1995   1.941       .  S
Al1985     O1994   1.778       .  S
C1986      O1999   1.253       .  A
C1986      C2577   1.473       .  S
O1987      C1997   1.256       .  A
O1987     Al1989   1.890       .  S
O1988      C2001   1.267   1_455  A
O1988     Al1998   1.894       .  S
Al1989     O2002   1.894       .  S
Al1989     O1999   1.879       .  S
Al1989     O1994   1.753       .  S
O1990      C1997   1.253       .  A
O1990     Al1998   1.899       .  S
O1991      C2000   1.247       .  A
O1991     Al1998   1.887       .  S
O1992     Al1998   1.830       .  S
O1993      C2000   1.260       .  A
O1994     Al1998   1.803       .  S
O1995      C1996   1.269       .  A
C1996      C2227   1.467       .  S
C1997      C2194   1.448       .  S
C2000      C4247   1.510       .  S
C2001      O2002   1.270   1_655  A
C2001      C2157   1.452       .  S
O2003      C2018   1.261       .  A
O2003     Al2011   1.881       .  S
C2004      O2014   1.249       .  A
C2004      O2005   1.281       .  A
C2004      C2167   1.515       .  S
O2005     Al2007   1.985       .  S
O2006      C2008   1.259       .  A
O2006     Al2007   1.918       .  S
Al2007     O2015   1.967       .  S
Al2007     O2017   1.955       .  S
Al2007     O2016   1.773       .  S
C2008      O2021   1.258       .  A
C2008      C2657   1.474       .  S
O2009      C2019   1.261       .  A
O2009     Al2011   1.878       .  S
O2010      C2023   1.257       .  A
O2010     Al2020   1.897       .  S
Al2011     O2024   1.893       .  S
Al2011     O2021   1.901       .  S
Al2011     O2016   1.756       .  S
O2012      C2019   1.265       .  A
O2012     Al2020   1.922       .  S
O2013      C2022   1.253       .  A
O2013     Al2020   1.885       .  S
O2014     Al2020   1.820       .  S
O2015      C2022   1.268       .  A
O2016     Al2020   1.803       .  S
O2017      C2018   1.273       .  A
C2018      C2797   1.472       .  S
C2019      C2144   1.459       .  S
C2022      C3997   1.506       .  S
C2023      O2024   1.261       .  A
C2023      C2874   1.449       .  S
O2025      C2040   1.261       .  A
O2025     Al2033   1.864       .  S
C2026      O2036   1.260       .  A
C2026      O2027   1.269       .  A
C2026      C2134   1.502       .  S
O2027     Al2029   1.921       .  S
O2028      C2030   1.248       .  A
O2028     Al2029   1.864       .  S
Al2029     O2037   1.849       .  S
Al2029     O2039   1.926       .  S
Al2029     O2038   1.784       .  S
C2030      O2043   1.262       .  A
C2030      C2154   1.449       .  S
O2031      C2041   1.262       .  A
O2031     Al2033   1.883       .  S
O2032      C2045   1.264       .  A
O2032     Al2042   1.916       .  S
Al2033     O2046   1.908       .  S
Al2033     O2043   1.915       .  S
Al2033     O2038   1.754       .  S
O2034      C2041   1.276       .  A
O2034     Al2042   1.976       .  S
O2035      C2044   1.280       .  A
O2035     Al2042   2.005       .  S
O2036     Al2042   1.919       .  S
O2037      C2044   1.247       .  A
O2038     Al2042   1.784       .  S
O2039      C2040   1.268       .  A
C2040      C2237   1.456       .  S
C2041      C2207   1.479       .  S
C2044      C4417   1.507       .  S
C2045      O2046   1.262       .  A
C2045      C2267   1.460       .  S
O2047      C2062   1.261       .  A
O2047     Al2055   1.874       .  S
C2048      O2058   1.259       .  A
C2048      O2049   1.267       .  A
C2048      C2137   1.503       .  S
O2049     Al2051   1.922       .  S
O2050      C2052   1.250       .  A
O2050     Al2051   1.855       .  S
Al2051     O2059   1.843       .  S
Al2051     O2061   1.921       .  S
Al2051     O2060   1.796       .  S
C2052      O2065   1.258       .  A
C2052      C2177   1.436       .  S
O2053      C2063   1.261       .  A
O2053     Al2055   1.881       .  S
O2054      C2067   1.263       .  A
O2054     Al2064   1.924       .  S
Al2055     O2068   1.889       .  S
Al2055     O2065   1.884       .  S
Al2055     O2060   1.753       .  S
O2056      C2063   1.273       .  A
O2056     Al2064   1.965       .  S
O2057      C2066   1.277       .  A
O2057     Al2064   1.983       .  S
O2058     Al2064   1.921       .  S
O2059      C2066   1.249       .  A
O2060     Al2064   1.787       .  S
O2061      C2062   1.266       .  A
C2062      C4227   1.452       .  S
C2063      C2907   1.479       .  S
C2066      C2124   1.499       .  S
C2067      O2068   1.257       .  A
C2067      C3177   1.464       .  S
O2069      C2084   1.261       .  A
O2069     Al2077   1.884       .  S
C2070      O2080   1.262       .  A
C2070      O2071   1.262       .  A
C2070      C2117   1.516       .  S
O2071     Al2073   1.906       .  S
O2072      C2074   1.253       .  A
O2072     Al2073   1.873       .  S
Al2073     O2081   1.856       .  S
Al2073     O2083   1.896       .  S
Al2073     O2082   1.791       .  S
C2074      O2087   1.259       .  A
C2074      C2667   1.441       .  S
O2075      C2085   1.258       .  A
O2075     Al2077   1.867       .  S
O2076      C2089   1.268       .  A
O2076     Al2086   1.942       .  S
Al2077     O2090   1.887       .  S
Al2077     O2087   1.888       .  S
Al2077     O2082   1.755       .  S
O2078      C2085   1.269       .  A
O2078     Al2086   1.947       .  S
O2079      C2088   1.278       .  A
O2079     Al2086   1.981       .  S
O2080     Al2086   1.944       .  S
O2081      C2088   1.253       .  A
O2082     Al2086   1.784       .  S
O2083      C2084   1.261       .  A
C2084      C2147   1.446       .  S
C2085      C2717   1.465       .  S
C2088      C2127   1.489       .  S
C2089      O2090   1.256       .  A
C2089      C2867   1.475       .  S
O2091      C2106   1.261       .  A
O2091     Al2099   1.869       .  S
C2092      O2102   1.266       .  A
C2092      O2093   1.266       .  A
C2092      C2114   1.517       .  S
O2093     Al2095   1.912       .  S
O2094      C2096   1.244       .  A
O2094     Al2095   1.856       .  S
Al2095     O2103   1.840       .  S
Al2095     O2105   1.917       .  S
Al2095     O2104   1.774       .  S
C2096      O2109   1.261       .  A
C2096      C4277   1.444       .  S
O2097      C2107   1.258   1_545  A
O2097     Al2099   1.877       .  S
O2098      C2111   1.267       .  A
O2098     Al2108   1.921   1_565  S
Al2099     O2112   1.926   1_545  S
Al2099     O2109   1.927       .  S
Al2099     O2104   1.759       .  S
O2100      C2107   1.275       .  A
O2100     Al2108   1.979   1_565  S
O2101      C2110   1.282       .  A
O2101     Al2108   2.012       .  S
O2102     Al2108   1.945       .  S
O2103      C2110   1.249       .  A
O2104     Al2108   1.780       .  S
O2105      C2106   1.266       .  A
C2106      C3464   1.454       .  S
C2107      C4817   1.479       .  S
C2110      C3697   1.508       .  S
C2111      O2112   1.266       .  A
C2111      C3414   1.471       .  S
C2113      C2114   1.413       .  A
C2113      C2118   1.416       .  A
C2113      H2120   1.083       .  S
C2114      C2115   1.414       .  A
C2115      C2116   1.406       .  A
C2115      F2122   1.357       .  S
C2116      C2117   1.410       .  A
C2116      H2121   1.082       .  S
C2117      C2118   1.414       .  A
C2118      F2119   1.357       .  S
C2123      C2124   1.400       .  A
C2123      C2128   1.408   1_655  A
C2123      H2130   1.083   1_655  S
C2124      C2125   1.423       .  A
C2125      C2126   1.404       .  A
C2125      F2132   1.358       .  S
C2126      C2127   1.395   1_655  A
C2126      H2131   1.083       .  S
C2127      C2128   1.416       .  A
C2128      F2129   1.356       .  S
C2133      C2134   1.415       .  A
C2133      C2138   1.412       .  A
C2133      H2140   1.077       .  S
C2134      C2135   1.397       .  A
C2135      C2136   1.409       .  A
C2135      F2142   1.356       .  S
C2136      C2137   1.410       .  A
C2136      H2141   1.075       .  S
C2137      C2138   1.400       .  A
C2138      F2139   1.357       .  S
C2143      C2144   1.400       .  A
C2143      C2148   1.389       .  A
C2143      H2150   1.075       .  S
C2144      C2145   1.402       .  A
C2145      C2146   1.385       .  A
C2145      F2152   1.354       .  S
C2146      C2147   1.398       .  A
C2146      H2151   1.084       .  S
C2147      C2148   1.400       .  A
C2148      F2149   1.357       .  S
C2153      C2154   1.401       .  A
C2153      C2158   1.396       .  A
C2153      H2160   1.080       .  S
C2154      C2155   1.398       .  A
C2155      C2156   1.380       .  A
C2155      F2162   1.357       .  S
C2156      C2157   1.401       .  A
C2156      H2161   1.083       .  S
C2157      C2158   1.405       .  A
C2158      F2159   1.357       .  S
C2163      C2164   1.419       .  A
C2163      C2168   1.428       .  A
C2163      H2170   1.082       .  S
C2164      C2165   1.398       .  A
C2165      C2166   1.385       .  A
C2165      F2172   1.360       .  S
C2166      C2167   1.414       .  A
C2166      H2171   1.080       .  S
C2167      C2168   1.412       .  A
C2168      F2169   1.356       .  S
C2173      C2174   1.400       .  A
C2173      C2178   1.393       .  A
C2173      H2180   1.083       .  S
C2174      C2175   1.399       .  A
C2175      C2176   1.374       .  A
C2175      F2182   1.357       .  S
C2176      C2177   1.394       .  A
C2176      H2181   1.084       .  S
C2177      C2178   1.402       .  A
C2178      F2179   1.358       .  S
C2183      C2184   1.418       .  A
C2183      C2188   1.432       .  A
C2183      H2190   1.082       .  S
C2184      C2185   1.417       .  A
C2185      C2186   1.388       .  A
C2185      F2192   1.358       .  S
C2186      C2187   1.405       .  A
C2186      H2191   1.084       .  S
C2187      C2188   1.418       .  A
C2188      F2189   1.356       .  S
C2193      C2194   1.400       .  A
C2193      C2198   1.389       .  A
C2193      H2200   1.084       .  S
C2194      C2195   1.400       .  A
C2195      C2196   1.388       .  A
C2195      F2202   1.358       .  S
C2196      C2197   1.403       .  A
C2196      H2201   1.084       .  S
C2197      C2198   1.403       .  A
C2198      F2199   1.358   1_455  S
C2203      C2204   1.402       .  A
C2203      C2208   1.401       .  A
C2203      H2210   1.084       .  S
C2204      C2205   1.407       .  A
C2205      C2206   1.403       .  A
C2205      F2212   1.357       .  S
C2206      C2207   1.404       .  A
C2206      H2211   1.084       .  S
C2207      C2208   1.408       .  A
C2208      F2209   1.357       .  S
C2213      C2214   1.410       .  A
C2213      C2218   1.407       .  A
C2213      H2220   1.082       .  S
C2214      C2215   1.415       .  A
C2215      C2216   1.416       .  A
C2215      F2222   1.357       .  S
C2216      C2217   1.413       .  A
C2216      H2221   1.083       .  S
C2217      C2218   1.413       .  A
C2218      F2219   1.357       .  S
C2223      C2224   1.398   1_655  A
C2223      C2228   1.393       .  A
C2223      H2230   1.084       .  S
C2224      C2225   1.405       .  A
C2225      C2226   1.402       .  A
C2225      F2232   1.355       .  S
C2226      C2227   1.402       .  A
C2226      H2231   1.083       .  S
C2227      C2228   1.408   1_455  A
C2228      F2229   1.358       .  S
C2233      C2234   1.401       .  A
C2233      C2238   1.397       .  A
C2233      H2240   1.084       .  S
C2234      C2235   1.396       .  A
C2235      C2236   1.380       .  A
C2235      F2242   1.359       .  S
C2236      C2237   1.403       .  A
C2236      H2241   1.084       .  S
C2237      C2238   1.405       .  A
C2238      F2239   1.357       .  S
C2243      C2244   1.416       .  A
C2243      C2248   1.417       .  A
C2243      H2250   1.083       .  S
C2244      C2245   1.395       .  A
C2245      C2246   1.396       .  A
C2245      F2252   1.358       .  S
C2246      C2247   1.416       .  A
C2246      H2251   1.082       .  S
C2247      C2248   1.405       .  A
C2248      F2249   1.356       .  S
C2253      C2254   1.413       .  A
C2253      C2258   1.387       .  A
C2253      H2260   1.082       .  S
C2254      C2255   1.415       .  A
C2255      C2256   1.430       .  A
C2255      F2262   1.356       .  S
C2256      C2257   1.419       .  A
C2256      H2261   1.083       .  S
C2257      C2258   1.404       .  A
C2258      F2259   1.360       .  S
C2263      C2264   1.405       .  A
C2263      C2268   1.393       .  A
C2263      H2270   1.080       .  S
C2264      C2265   1.405       .  A
C2265      C2266   1.401       .  A
C2265      F2272   1.357       .  S
C2266      C2267   1.405       .  A
C2266      H2271   1.084       .  S
C2267      C2268   1.400       .  A
C2268      F2269   1.359       .  S
C2273      C2274   1.405       .  A
C2273      C2278   1.404       .  A
C2273      H2280   1.083       .  S
C2274      C2275   1.403       .  A
C2275      C2276   1.396   1_655  A
C2275      F2282   1.358   1_655  S
C2276      C2277   1.406   1_455  A
C2276      H2281   1.084       .  S
C2277      C2278   1.406       .  A
C2278      F2279   1.357       .  S
C2283      C2284   1.405       .  A
C2283      C2288   1.397       .  A
C2283      H2290   1.084       .  S
C2284      C2285   1.395       .  A
C2285      C2286   1.382       .  A
C2285      F2292   1.358       .  S
C2286      C2287   1.402       .  A
C2286      H2291   1.082       .  S
C2287      C2288   1.397       .  A
C2288      F2289   1.357       .  S
C2293      C2294   1.398       .  A
C2293      C2298   1.412       .  A
C2293      H2300   1.083       .  S
C2294      C2295   1.415       .  A
C2295      C2296   1.409       .  A
C2295      F2302   1.343       .  S
C2296      C2297   1.397       .  A
C2296      H2301   1.083       .  S
C2297      C2298   1.417       .  A
C2298      F2299   1.347       .  S
C2303      C2304   1.410       .  A
C2303      C2308   1.414       .  A
C2303      H2310   1.083       .  S
C2304      C2305   1.414       .  A
C2305      C2306   1.404       .  A
C2305      F2312   1.358       .  S
C2306      C2307   1.408       .  A
C2306      H2311   1.083       .  S
C2307      C2308   1.414       .  A
C2308      F2309   1.357   1_655  S
C2313      C2314   1.401       .  A
C2313      C2318   1.389       .  A
C2313      H2320   1.082       .  S
C2314      C2315   1.399       .  A
C2315      C2316   1.390       .  A
C2315      F2322   1.358       .  S
C2316      C2317   1.405       .  A
C2316      H2321   1.083       .  S
C2317      C2318   1.402       .  A
C2318      F2319   1.358       .  S
C2323      C2324   1.412       .  A
C2323      C2328   1.388       .  A
C2323      H2330   1.081       .  S
C2324      C2325   1.415       .  A
C2325      C2326   1.430       .  A
C2325      F2332   1.356       .  S
C2326      C2327   1.418       .  A
C2326      H2331   1.082       .  S
C2327      C2328   1.402       .  A
C2328      F2329   1.360       .  S
C2333      C2334   1.404       .  A
C2333      C2338   1.405       .  A
C2333      H2340   1.083       .  S
C2334      C2335   1.407       .  A
C2335      C2336   1.398       .  A
C2335      F2342   1.358       .  S
C2336      C2337   1.401       .  A
C2336      H2341   1.084       .  S
C2337      C2338   1.408       .  A
C2338      F2339   1.357       .  S
C2343      C2344   1.392       .  A
C2343      C2348   1.375       .  A
C2343      H2350   1.084       .  S
C2344      C2345   1.405       .  A
C2345      C2346   1.396       .  A
C2345      F2352   1.357       .  S
C2346      C2347   1.399       .  A
C2346      H2351   1.083       .  S
C2347      C2348   1.403       .  A
C2348      F2349   1.356       .  S
C2353      C2354   1.410       .  A
C2353      C2358   1.410       .  A
C2353      H2360   1.082       .  S
C2354      C2355   1.418       .  A
C2355      C2356   1.420       .  A
C2355      F2362   1.357       .  S
C2356      C2357   1.414       .  A
C2356      H2361   1.083       .  S
C2357      C2358   1.416       .  A
C2358      F2359   1.357       .  S
C2363      C2364   1.400       .  A
C2363      C2368   1.399       .  A
C2363      H2370   1.084       .  S
C2364      C2365   1.405       .  A
C2365      C2366   1.404       .  A
C2365      F2372   1.357       .  S
C2366      C2367   1.405       .  A
C2366      H2371   1.083       .  S
C2367      C2368   1.410       .  A
C2368      F2369   1.358       .  S
C2373      C2374   1.397       .  A
C2373      C2378   1.391       .  A
C2373      H2380   1.083       .  S
C2374      C2375   1.399       .  A
C2375      C2376   1.381       .  A
C2375      F2382   1.359       .  S
C2376      C2377   1.401       .  A
C2376      H2381   1.084       .  S
C2377      C2378   1.407       .  A
C2378      F2379   1.355       .  S
C2383      C2384   1.412       .  A
C2383      C2388   1.391       .  A
C2383      H2390   1.071       .  S
C2384      C2385   1.410       .  A
C2385      C2386   1.428       .  A
C2385      F2392   1.356       .  S
C2386      C2387   1.421       .  A
C2386      H2391   1.081       .  S
C2387      C2388   1.396       .  A
C2388      F2389   1.359       .  S
C2393      C2394   1.412       .  A
C2393      C2398   1.417       .  A
C2393      H2400   1.083   1_556  S
C2394      C2395   1.412       .  A
C2395      C2396   1.403       .  A
C2395      F2402   1.358       .  S
C2396      C2397   1.409       .  A
C2396      H2401   1.083       .  S
C2397      C2398   1.414       .  A
C2398      F2399   1.357   1_556  S
C2403      C2404   1.395       .  A
C2403      C2408   1.389       .  A
C2403      H2410   1.084       .  S
C2404      C2405   1.406       .  A
C2405      C2406   1.390       .  A
C2405      F2412   1.357       .  S
C2406      C2407   1.393       .  A
C2406      H2411   1.084       .  S
C2407      C2408   1.403       .  A
C2408      F2409   1.358       .  S
C2413      C2414   1.398       .  A
C2413      C2418   1.390       .  A
C2413      H2420   1.085       .  S
C2414      C2415   1.419       .  A
C2415      C2416   1.430       .  A
C2415      F2422   1.355       .  S
C2416      C2417   1.414       .  A
C2416      H2421   1.082       .  S
C2417      C2418   1.424       .  A
C2418      F2419   1.359       .  S
C2423      C2424   1.402       .  A
C2423      C2428   1.399       .  A
C2423      H2430   1.084       .  S
C2424      C2425   1.400       .  A
C2425      C2426   1.391       .  A
C2425      F2432   1.358       .  S
C2426      C2427   1.403       .  A
C2426      H2431   1.081       .  S
C2427      C2428   1.407       .  A
C2428      F2429   1.357       .  S
C2433      C2434   1.407       .  A
C2433      C2438   1.400       .  A
C2433      H2440   1.084       .  S
C2434      C2435   1.407       .  A
C2435      C2436   1.406       .  A
C2435      F2442   1.357       .  S
C2436      C2437   1.406       .  A
C2436      H2441   1.084       .  S
C2437      C2438   1.404       .  A
C2438      F2439   1.358       .  S
C2443      C2444   1.406       .  A
C2443      C2448   1.397       .  A
C2443      H2450   1.083       .  S
C2444      C2445   1.392       .  A
C2445      C2446   1.378       .  A
C2445      F2452   1.359       .  S
C2446      C2447   1.399       .  A
C2446      H2451   1.077       .  S
C2447      C2448   1.398       .  A
C2448      F2449   1.357       .  S
C2453      C2454   1.414       .  A
C2453      C2458   1.410       .  A
C2453      H2460   1.075       .  S
C2454      C2455   1.401       .  A
C2455      C2456   1.414       .  A
C2455      F2462   1.357       .  S
C2456      C2457   1.413       .  A
C2456      H2461   1.078       .  S
C2457      C2458   1.396       .  A
C2458      F2459   1.355       .  S
C2463      C2464   1.397       .  A
C2463      C2468   1.385       .  A
C2463      H2470   1.080       .  S
C2464      C2465   1.403       .  A
C2465      C2466   1.397       .  A
C2465      F2472   1.358       .  S
C2466      C2467   1.399       .  A
C2466      H2471   1.066       .  S
C2467      C2468   1.399       .  A
C2468      F2469   1.354       .  S
C2473      C2474   1.414       .  A
C2473      C2478   1.387       .  A
C2473      H2480   1.078       .  S
C2474      C2475   1.412       .  A
C2475      C2476   1.428       .  A
C2475      F2482   1.356       .  S
C2476      C2477   1.419       .  A
C2476      H2481   1.082       .  S
C2477      C2478   1.399       .  A
C2478      F2479   1.360       .  S
C2483      C2484   1.409       .  A
C2483      C2488   1.414       .  A
C2483      H2490   1.083       .  S
C2484      C2485   1.418       .  A
C2485      C2486   1.400       .  A
C2485      F2492   1.358       .  S
C2486      C2487   1.401       .  A
C2486      H2491   1.084       .  S
C2487      C2488   1.413       .  A
C2488      F2489   1.357       .  S
C2493      C2494   1.399       .  A
C2493      C2498   1.396       .  A
C2493      H2500   1.084       .  S
C2494      C2495   1.406       .  A
C2495      C2496   1.405       .  A
C2495      F2502   1.355       .  S
C2496      C2497   1.405       .  A
C2496      H2501   1.083       .  S
C2497      C2498   1.412       .  A
C2498      F2499   1.359       .  S
C2503      C2504   1.407       .  A
C2503      C2508   1.400       .  A
C2503      H2510   1.084       .  S
C2504      C2505   1.404       .  A
C2505      C2506   1.398       .  A
C2505      F2512   1.355       .  S
C2506      C2507   1.401       .  A
C2506      H2511   1.084       .  S
C2507      C2508   1.401       .  A
C2508      F2509   1.357       .  S
C2513      C2514   1.403       .  A
C2513      C2518   1.397       .  A
C2513      H2520   1.083       .  S
C2514      C2515   1.400       .  A
C2515      C2516   1.379       .  A
C2515      F2522   1.359       .  S
C2516      C2517   1.398       .  A
C2516      H2521   1.082       .  S
C2517      C2518   1.403       .  A
C2518      F2519   1.354       .  S
C2523      C2524   1.398       .  A
C2523      C2528   1.399       .  A
C2523      H2530   1.083       .  S
C2524      C2525   1.399       .  A
C2525      C2526   1.383       .  A
C2525      F2532   1.358       .  S
C2526      C2527   1.402       .  A
C2526      H2531   1.083       .  S
C2527      C2528   1.411       .  A
C2528      F2529   1.357       .  S
C2533      C2534   1.411       .  A
C2533      C2538   1.425       .  A
C2533      H2540   1.082       .  S
C2534      C2535   1.427       .  A
C2535      C2536   1.389       .  A
C2535      F2542   1.358       .  S
C2536      C2537   1.393       .  A
C2536      H2541   1.085       .  S
C2537      C2538   1.418       .  A
C2538      F2539   1.355       .  S
C2543      C2544   1.411   1_655  A
C2543      C2548   1.414       .  A
C2543      H2550   1.083       .  S
C2544      C2545   1.417       .  A
C2545      C2546   1.409   1_455  A
C2545      F2552   1.357       .  S
C2546      C2547   1.407       .  A
C2546      H2551   1.083       .  S
C2547      C2548   1.413       .  A
C2548      F2549   1.357       .  S
C2553      C2554   1.403       .  A
C2553      C2558   1.402       .  A
C2553      H2560   1.080       .  S
C2554      C2555   1.403       .  A
C2555      C2556   1.397       .  A
C2555      F2562   1.355       .  S
C2556      C2557   1.402       .  A
C2556      H2561   1.081       .  S
C2557      C2558   1.406       .  A
C2558      F2559   1.357       .  S
C2563      C2564   1.396       .  A
C2563      C2568   1.389       .  A
C2563      H2570   1.082       .  S
C2564      C2565   1.399       .  A
C2565      C2566   1.387       .  A
C2565      F2572   1.358   1_455  S
C2566      C2567   1.403       .  A
C2566      H2571   1.083       .  S
C2567      C2568   1.409       .  A
C2568      F2569   1.357       .  S
C2573      C2574   1.405       .  A
C2573      C2578   1.405       .  A
C2573      H2580   1.083       .  S
C2574      C2575   1.410       .  A
C2575      C2576   1.399       .  A
C2575      F2582   1.358       .  S
C2576      C2577   1.401       .  A
C2576      H2581   1.084       .  S
C2577      C2578   1.406       .  A
C2578      F2579   1.357       .  S
C2583      C2584   1.398       .  A
C2583      C2588   1.396       .  A
C2583      H2590   1.083       .  S
C2584      C2585   1.403       .  A
C2585      C2586   1.381       .  A
C2585      F2592   1.353       .  S
C2586      C2587   1.390       .  A
C2586      H2591   1.084       .  S
C2587      C2588   1.405       .  A
C2588      F2589   1.357       .  S
C2593      C2594   1.407       .  A
C2593      C2598   1.401       .  A
C2593      H2600   1.084       .  S
C2594      C2595   1.404       .  A
C2595      C2596   1.397       .  A
C2595      F2602   1.353       .  S
C2596      C2597   1.399       .  A
C2596      H2601   1.084       .  S
C2597      C2598   1.403       .  A
C2598      F2599   1.358       .  S
C2603      C2604   1.414       .  A
C2603      C2608   1.392       .  A
C2603      H2610   1.074       .  S
C2604      C2605   1.410       .  A
C2605      C2606   1.428       .  A
C2605      F2612   1.356       .  S
C2606      C2607   1.419       .  A
C2606      H2611   1.079       .  S
C2607      C2608   1.397       .  A
C2608      F2609   1.359       .  S
C2613      C2614   1.405       .  A
C2613      C2618   1.393       .  A
C2613      H2620   1.078       .  S
C2614      C2615   1.405       .  A
C2615      C2616   1.404       .  A
C2615      F2622   1.357       .  S
C2616      C2617   1.405       .  A
C2616      H2621   1.083       .  S
C2617      C2618   1.398       .  A
C2618      F2619   1.357       .  S
C2623      C2624   1.405       .  A
C2623      C2628   1.405       .  A
C2623      H2630   1.083       .  S
C2624      C2625   1.402       .  A
C2625      C2626   1.393       .  A
C2625      F2632   1.357       .  S
C2626      C2627   1.404       .  A
C2626      H2631   1.082       .  S
C2627      C2628   1.408       .  A
C2628      F2629   1.357       .  S
C2633      C2634   1.401       .  A
C2633      C2638   1.388       .  A
C2633      H2640   1.082       .  S
C2634      C2635   1.403       .  A
C2635      C2636   1.392       .  A
C2635      F2642   1.357       .  S
C2636      C2637   1.401       .  A
C2636      H2641   1.084       .  S
C2637      C2638   1.403       .  A
C2638      F2639   1.358       .  S
C2643      C2644   1.400       .  A
C2643      C2648   1.412       .  A
C2643      H2650   1.083       .  S
C2644      C2645   1.416       .  A
C2645      C2646   1.408       .  A
C2645      F2652   1.343       .  S
C2646      C2647   1.395       .  A
C2646      H2651   1.083       .  S
C2647      C2648   1.415       .  A
C2648      F2649   1.346       .  S
C2653      C2654   1.399       .  A
C2653      C2658   1.385       .  A
C2653      H2660   1.085       .  S
C2654      C2655   1.407       .  A
C2655      C2656   1.411       .  A
C2655      F2662   1.357       .  S
C2656      C2657   1.408       .  A
C2656      H2661   1.083       .  S
C2657      C2658   1.402       .  A
C2658      F2659   1.353       .  S
C2663      C2664   1.399       .  A
C2663      C2668   1.394       .  A
C2663      H2670   1.083       .  S
C2664      C2665   1.397       .  A
C2665      C2666   1.382       .  A
C2665      F2672   1.357       .  S
C2666      C2667   1.398       .  A
C2666      H2671   1.084       .  S
C2667      C2668   1.402       .  A
C2668      F2669   1.358       .  S
C2673      C2674   1.399       .  A
C2673      C2678   1.398       .  A
C2673      H2680   1.083       .  S
C2674      C2675   1.404   1_565  A
C2675      C2676   1.400       .  A
C2675      F2682   1.357       .  S
C2676      C2677   1.402       .  A
C2676      H2681   1.083       .  S
C2677      C2678   1.409   1_545  A
C2678      F2679   1.358       .  S
C2683      C2684   1.402       .  A
C2683      C2688   1.398       .  A
C2683      H2690   1.083       .  S
C2684      C2685   1.403       .  A
C2685      C2686   1.381       .  A
C2685      F2692   1.358       .  S
C2686      C2687   1.397       .  A
C2686      H2691   1.083       .  S
C2687      C2688   1.405       .  A
C2688      F2689   1.354       .  S
C2693      C2694   1.415       .  A
C2693      C2698   1.396       .  A
C2693      H2700   1.082       .  S
C2694      C2695   1.411       .  A
C2695      C2696   1.423       .  A
C2695      F2702   1.356       .  S
C2696      C2697   1.419       .  A
C2696      H2701   1.082       .  S
C2697      C2698   1.405       .  A
C2698      F2699   1.358       .  S
C2703      C2704   1.394       .  A
C2703      C2708   1.404   1_565  A
C2703      H2710   1.083       .  S
C2704      C2705   1.417       .  A
C2705      C2706   1.412       .  A
C2705      F2712   1.357       .  S
C2706      C2707   1.403   1_565  A
C2706      H2711   1.083       .  S
C2707      C2708   1.426       .  A
C2708      F2709   1.357       .  S
C2713      C2714   1.399       .  A
C2713      C2718   1.396       .  A
C2713      H2720   1.084       .  S
C2714      C2715   1.406       .  A
C2715      C2716   1.398       .  A
C2715      F2722   1.356       .  S
C2716      C2717   1.400       .  A
C2716      H2721   1.084       .  S
C2717      C2718   1.406       .  A
C2718      F2719   1.358       .  S
C2723      C2724   1.402       .  A
C2723      C2728   1.391       .  A
C2723      H2730   1.084       .  S
C2724      C2725   1.403       .  A
C2725      C2726   1.393       .  A
C2725      F2732   1.358       .  S
C2726      C2727   1.400       .  A
C2726      H2731   1.084       .  S
C2727      C2728   1.399       .  A
C2728      F2729   1.356       .  S
C2733      C2734   1.416       .  A
C2733      C2738   1.416       .  A
C2733      H2740   1.078       .  S
C2734      C2735   1.394       .  A
C2735      C2736   1.407       .  A
C2735      F2742   1.357       .  S
C2736      C2737   1.413       .  A
C2736      H2741   1.070       .  S
C2737      C2738   1.401       .  A
C2738      F2739   1.355       .  S
C2743      C2744   1.402       .  A
C2743      C2748   1.400       .  A
C2743      H2750   1.084       .  S
C2744      C2745   1.406       .  A
C2745      C2746   1.401       .  A
C2745      F2752   1.358       .  S
C2746      C2747   1.403       .  A
C2746      H2751   1.083       .  S
C2747      C2748   1.407       .  A
C2748      F2749   1.358       .  S
C2753      C2754   1.401       .  A
C2753      C2758   1.387       .  A
C2753      H2760   1.084       .  S
C2754      C2755   1.403       .  A
C2755      C2756   1.390       .  A
C2755      F2762   1.358       .  S
C2756      C2757   1.400       .  A
C2756      H2761   1.082       .  S
C2757      C2758   1.401       .  A
C2758      F2759   1.358       .  S
C2763      C2764   1.395       .  A
C2763      C2768   1.410       .  A
C2763      H2770   1.083       .  S
C2764      C2765   1.415       .  A
C2765      C2766   1.409       .  A
C2765      F2772   1.343       .  S
C2766      C2767   1.396       .  A
C2766      H2771   1.083       .  S
C2767      C2768   1.416       .  A
C2768      F2769   1.342       .  S
C2773      C2774   1.406       .  A
C2773      C2778   1.395       .  A
C2773      H2780   1.084       .  S
C2774      C2775   1.407       .  A
C2775      C2776   1.406       .  A
C2775      F2782   1.356       .  S
C2776      C2777   1.406       .  A
C2776      H2781   1.083       .  S
C2777      C2778   1.404       .  A
C2778      F2779   1.357       .  S
C2783      C2784   1.405       .  A
C2783      C2788   1.397       .  A
C2783      H2790   1.083       .  S
C2784      C2785   1.393       .  A
C2785      C2786   1.376       .  A
C2785      F2792   1.357       .  S
C2786      C2787   1.400       .  A
C2786      H2791   1.081       .  S
C2787      C2788   1.398       .  A
C2788      F2789   1.357       .  S
C2793      C2794   1.403       .  A
C2793      C2798   1.403       .  A
C2793      H2800   1.084       .  S
C2794      C2795   1.404       .  A
C2795      C2796   1.398       .  A
C2795      F2802   1.356       .  S
C2796      C2797   1.403       .  A
C2796      H2801   1.084       .  S
C2797      C2798   1.407       .  A
C2798      F2799   1.357       .  S
C2803      C2804   1.400       .  A
C2803      C2808   1.401       .  A
C2803      H2810   1.083       .  S
C2804      C2805   1.406       .  A
C2805      C2806   1.395   1_554  A
C2805      F2812   1.357   1_554  S
C2806      C2807   1.398   1_556  A
C2806      H2811   1.083       .  S
C2807      C2808   1.405       .  A
C2808      F2809   1.353       .  S
C2813      C2814   1.402       .  A
C2813      C2818   1.398       .  A
C2813      H2820   1.083       .  S
C2814      C2815   1.406       .  A
C2815      C2816   1.377       .  A
C2815      F2822   1.358       .  S
C2816      C2817   1.395       .  A
C2816      H2821   1.084       .  S
C2817      C2818   1.406       .  A
C2818      F2819   1.356       .  S
C2823      C2824   1.418       .  A
C2823      C2828   1.392       .  A
C2823      H2830   1.079       .  S
C2824      C2825   1.411       .  A
C2825      C2826   1.428       .  A
C2825      F2832   1.356       .  S
C2826      C2827   1.419       .  A
C2826      H2831   1.081       .  S
C2827      C2828   1.398       .  A
C2828      F2829   1.359       .  S
C2833      C2834   1.415       .  A
C2833      C2838   1.402       .  A
C2833      H2840   1.083       .  S
C2834      C2835   1.410       .  A
C2835      C2836   1.417       .  A
C2835      F2842   1.357       .  S
C2836      C2837   1.413       .  A
C2836      H2841   1.083       .  S
C2837      C2838   1.402       .  A
C2838      F2839   1.358       .  S
C2843      C2844   1.418       .  A
C2843      C2848   1.409       .  A
C2843      H2850   1.084       .  S
C2844      C2845   1.401   1_554  A
C2845      C2846   1.409       .  A
C2845      F2852   1.357       .  S
C2846      C2847   1.417       .  A
C2846      H2851   1.084       .  S
C2847      C2848   1.401   1_556  A
C2848      F2849   1.357       .  S
C2853      C2854   1.404       .  A
C2853      C2858   1.404       .  A
C2853      H2860   1.083       .  S
C2854      C2855   1.402       .  A
C2855      C2856   1.394       .  A
C2855      F2862   1.358       .  S
C2856      C2857   1.405       .  A
C2856      H2861   1.081       .  S
C2857      C2858   1.408       .  A
C2858      F2859   1.355       .  S
C2863      C2864   1.405       .  A
C2863      C2868   1.406       .  A
C2863      H2870   1.083       .  S
C2864      C2865   1.409       .  A
C2865      C2866   1.401       .  A
C2865      F2872   1.358       .  S
C2866      C2867   1.403       .  A
C2866      H2871   1.084       .  S
C2867      C2868   1.408       .  A
C2868      F2869   1.357       .  S
C2873      C2874   1.398       .  A
C2873      C2878   1.397       .  A
C2873      H2880   1.083       .  S
C2874      C2875   1.402       .  A
C2875      C2876   1.380       .  A
C2875      F2882   1.346       .  S
C2876      C2877   1.388       .  A
C2876      H2881   1.084       .  S
C2877      C2878   1.406       .  A
C2878      F2879   1.357       .  S
C2883      C2884   1.396       .  A
C2883      C2888   1.392       .  A
C2883      H2890   1.083       .  S
C2884      C2885   1.398       .  A
C2885      C2886   1.385       .  A
C2885      F2892   1.358       .  S
C2886      C2887   1.402       .  A
C2886      H2891   1.084       .  S
C2887      C2888   1.409       .  A
C2888      F2889   1.357       .  S
C2893      C2894   1.414       .  A
C2893      C2898   1.416       .  A
C2893      H2900   1.083       .  S
C2894      C2895   1.412       .  A
C2895      C2896   1.407       .  A
C2895      F2902   1.358       .  S
C2896      C2897   1.410       .  A
C2896      H2901   1.082       .  S
C2897      C2898   1.414       .  A
C2898      F2899   1.357       .  S
C2903      C2904   1.398       .  A
C2903      C2908   1.394       .  A
C2903      H2910   1.084       .  S
C2904      C2905   1.408       .  A
C2905      C2906   1.405       .  A
C2905      F2912   1.357       .  S
C2906      C2907   1.404       .  A
C2906      H2911   1.083       .  S
C2907      C2908   1.408       .  A
C2908      F2909   1.352       .  S
C2913      C2914   1.405       .  A
C2913      C2918   1.390       .  A
C2913      H2920   1.083       .  S
C2914      C2915   1.399       .  A
C2915      C2916   1.387       .  A
C2915      F2922   1.358       .  S
C2916      C2917   1.403       .  A
C2916      H2921   1.084       .  S
C2917      C2918   1.398       .  A
C2918      F2919   1.358       .  S
C2923      C2924   1.420       .  A
C2923      C2928   1.412       .  A
C2923      H2930   1.084       .  S
C2924      C2925   1.400       .  A
C2925      C2926   1.411       .  A
C2925      F2932   1.357       .  S
C2926      C2927   1.421       .  A
C2926      H2931   1.084       .  S
C2927      C2928   1.401       .  A
C2928      F2929   1.357       .  S
C2933      C2934   1.401       .  A
C2933      C2938   1.387       .  A
C2933      H2940   1.084       .  S
C2934      C2935   1.409       .  A
C2935      C2936   1.389       .  A
C2935      F2942   1.357       .  S
C2936      C2937   1.396       .  A
C2936      H2941   1.084       .  S
C2937      C2938   1.403       .  A
C2938      F2939   1.358       .  S
C2943      C2944   1.398       .  A
C2943      C2948   1.393       .  A
C2943      H2950   1.084       .  S
C2944      C2945   1.404       .  A
C2945      C2946   1.402       .  A
C2945      F2952   1.357       .  S
C2946      C2947   1.405       .  A
C2946      H2951   1.083       .  S
C2947      C2948   1.408       .  A
C2948      F2949   1.353       .  S
C2953      C2954   1.407       .  A
C2953      C2958   1.401       .  A
C2953      H2960   1.082       .  S
C2954      C2955   1.414       .  A
C2955      C2956   1.416       .  A
C2955      F2962   1.357       .  S
C2956      C2957   1.412       .  A
C2956      H2961   1.083       .  S
C2957      C2958   1.413       .  A
C2958      F2959   1.357       .  S
C2963      C2964   1.405       .  A
C2963      C2968   1.406       .  A
C2963      H2970   1.083       .  S
C2964      C2965   1.409   1_556  A
C2965      C2966   1.400   1_554  A
C2965      F2972   1.358       .  S
C2966      C2967   1.402       .  A
C2966      H2971   1.084   1_556  S
C2967      C2968   1.407       .  A
C2968      F2969   1.357       .  S
C2973      C2974   1.413       .  A
C2973      C2978   1.407       .  A
C2973      H2980   1.083       .  S
C2974      C2975   1.412       .  A
C2975      C2976   1.413       .  A
C2975      F2982   1.357       .  S
C2976      C2977   1.410       .  A
C2976      H2981   1.083       .  S
C2977      C2978   1.406       .  A
C2978      F2979   1.357       .  S
C2983      C2984   1.403       .  A
C2983      C2988   1.402       .  A
C2983      H2990   1.083       .  S
C2984      C2985   1.402       .  A
C2985      C2986   1.398       .  A
C2985      F2992   1.356       .  S
C2986      C2987   1.406       .  A
C2986      H2991   1.084       .  S
C2987      C2988   1.406       .  A
C2988      F2989   1.356       .  S
C2993      C2994   1.409       .  A
C2993      C2998   1.416       .  A
C2993      H3000   1.083       .  S
C2994      C2995   1.420       .  A
C2995      C2996   1.399       .  A
C2995      F3002   1.357       .  S
C2996      C2997   1.398       .  A
C2996      H3001   1.084       .  S
C2997      C2998   1.414       .  A
C2998      F2999   1.357       .  S
C3003      C3004   1.405       .  A
C3003      C3008   1.397       .  A
C3003      H3010   1.083       .  S
C3004      C3005   1.395       .  A
C3005      C3006   1.377       .  A
C3005      F3012   1.359       .  S
C3006      C3007   1.401       .  A
C3006      H3011   1.083       .  S
C3007      C3008   1.399       .  A
C3008      F3009   1.357       .  S
C3013      C3014   1.404       .  A
C3013      C3018   1.387       .  A
C3013      H3020   1.083       .  S
C3014      C3015   1.402       .  A
C3015      C3016   1.387       .  A
C3015      F3022   1.358       .  S
C3016      C3017   1.400       .  A
C3016      H3021   1.082       .  S
C3017      C3018   1.397       .  A
C3018      F3019   1.356       .  S
C3023      C3024   1.417       .  A
C3023      C3028   1.428       .  A
C3023      H3030   1.081       .  S
C3024      C3025   1.398       .  A
C3025      C3026   1.388       .  A
C3025      F3032   1.360       .  S
C3026      C3027   1.418       .  A
C3026      H3031   1.081       .  S
C3027      C3028   1.412       .  A
C3028      F3029   1.356       .  S
C3033      C3034   1.403       .  A
C3033      C3038   1.397       .  A
C3033      H3040   1.077       .  S
C3034      C3035   1.405       .  A
C3035      C3036   1.403       .  A
C3035      F3042   1.357       .  S
C3036      C3037   1.404       .  A
C3036      H3041   1.083       .  S
C3037      C3038   1.406       .  A
C3038      F3039   1.358       .  S
C3043      C3044   1.405       .  A
C3043      C3048   1.404       .  A
C3043      H3050   1.083       .  S
C3044      C3045   1.409       .  A
C3045      C3046   1.393       .  A
C3045      F3052   1.359       .  S
C3046      C3047   1.399       .  A
C3046      H3051   1.084       .  S
C3047      C3048   1.405       .  A
C3048      F3049   1.356       .  S
C3053      C3054   1.407       .  A
C3053      C3058   1.416       .  A
C3053      H3060   1.083       .  S
C3054      C3055   1.422       .  A
C3055      C3056   1.407       .  A
C3055      F3062   1.355       .  S
C3056      C3057   1.398       .  A
C3056      H3061   1.083       .  S
C3057      C3058   1.416       .  A
C3058      F3059   1.357       .  S
C3063      C3064   1.396       .  A
C3063      C3068   1.393       .  A
C3063      H3070   1.083       .  S
C3064      C3065   1.404       .  A
C3065      C3066   1.388       .  A
C3065      F3072   1.354       .  S
C3066      C3067   1.392       .  A
C3066      H3071   1.083       .  S
C3067      C3068   1.404       .  A
C3068      F3069   1.357       .  S
C3073      C3074   1.394       .  A
C3073      C3078   1.409       .  A
C3073      H3080   1.082       .  S
C3074      C3075   1.416       .  A
C3075      C3076   1.410       .  A
C3075      F3082   1.351       .  S
C3076      C3077   1.399       .  A
C3076      H3081   1.083       .  S
C3077      C3078   1.416       .  A
C3078      F3079   1.344       .  S
C3083      C3084   1.405       .  A
C3083      C3088   1.397       .  A
C3083      H3090   1.084       .  S
C3084      C3085   1.406       .  A
C3085      C3086   1.402       .  A
C3085      F3092   1.357       .  S
C3086      C3087   1.404       .  A
C3086      H3091   1.084       .  S
C3087      C3088   1.403       .  A
C3088      F3089   1.357       .  S
C3093      C3094   1.411       .  A
C3093      C3098   1.408       .  A
C3093      H3100   1.082       .  S
C3094      C3095   1.413       .  A
C3095      C3096   1.415       .  A
C3095      F3102   1.357       .  S
C3096      C3097   1.413       .  A
C3096      H3101   1.083       .  S
C3097      C3098   1.413       .  A
C3098      F3099   1.357       .  S
C3103      C3104   1.402       .  A
C3103      C3108   1.399       .  A
C3103      H3110   1.084       .  S
C3104      C3105   1.405       .  A
C3105      C3106   1.403       .  A
C3105      F3112   1.357       .  S
C3106      C3107   1.405       .  A
C3106      H3111   1.083       .  S
C3107      C3108   1.408       .  A
C3108      F3109   1.358       .  S
C3113      C3114   1.403       .  A
C3113      C3118   1.406       .  A
C3113      H3120   1.083       .  S
C3114      C3115   1.401       .  A
C3115      C3116   1.394       .  A
C3115      F3122   1.357       .  S
C3116      C3117   1.407       .  A
C3116      H3121   1.084       .  S
C3117      C3118   1.409       .  A
C3118      F3119   1.356       .  S
C3123      C3124   1.405       .  A
C3123      C3128   1.404       .  A
C3123      H3130   1.083       .  S
C3124      C3125   1.410       .  A
C3125      C3126   1.398       .  A
C3125      F3132   1.358       .  S
C3126      C3127   1.400       .  A
C3126      H3131   1.084       .  S
C3127      C3128   1.406       .  A
C3128      F3129   1.355       .  S
C3133      C3134   1.399       .  A
C3133      C3138   1.383       .  A
C3133      H3140   1.083       .  S
C3134      C3135   1.404       .  A
C3135      C3136   1.391       .  A
C3135      F3142   1.357       .  S
C3136      C3137   1.400       .  A
C3136      H3141   1.084       .  S
C3137      C3138   1.402       .  A
C3138      F3139   1.358       .  S
C3143      C3144   1.419       .  A
C3143      C3148   1.428       .  A
C3143      H3150   1.081       .  S
C3144      C3145   1.398       .  A
C3145      C3146   1.393       .  A
C3145      F3152   1.359       .  S
C3146      C3147   1.415       .  A
C3146      H3151   1.077       .  S
C3147      C3148   1.411       .  A
C3148      F3149   1.356       .  S
C3153      C3154   1.405       .  A
C3153      C3158   1.402       .  A
C3153      H3160   1.084       .  S
C3154      C3155   1.400   1_545  A
C3155      C3156   1.395       .  A
C3155      F3162   1.358       .  S
C3156      C3157   1.406       .  A
C3156      H3161   1.084       .  S
C3157      C3158   1.403   1_565  A
C3158      F3159   1.357       .  S
C3163      C3164   1.414       .  A
C3163      C3168   1.411       .  A
C3163      H3170   1.074       .  S
C3164      C3165   1.399       .  A
C3165      C3166   1.414       .  A
C3165      F3172   1.355       .  S
C3166      C3167   1.415       .  A
C3166      H3171   1.079       .  S
C3167      C3168   1.397       .  A
C3168      F3169   1.357       .  S
C3173      C3174   1.405       .  A
C3173      C3178   1.396       .  A
C3173      H3180   1.083       .  S
C3174      C3175   1.406       .  A
C3175      C3176   1.402       .  A
C3175      F3182   1.357       .  S
C3176      C3177   1.404       .  A
C3176      H3181   1.084       .  S
C3177      C3178   1.403       .  A
C3178      F3179   1.357       .  S
C3183      C3184   1.404       .  A
C3183      C3188   1.402       .  A
C3183      H3190   1.083       .  S
C3184      C3185   1.401       .  A
C3185      C3186   1.394       .  A
C3185      F3192   1.358       .  S
C3186      C3187   1.404       .  A
C3186      H3191   1.083       .  S
C3187      C3188   1.405       .  A
C3188      F3189   1.356       .  S
C3193      C3194   1.406       .  A
C3193      C3198   1.397       .  A
C3193      H3200   1.084       .  S
C3194      C3195   1.405       .  A
C3195      C3196   1.401       .  A
C3195      F3202   1.357       .  S
C3196      C3197   1.403       .  A
C3196      H3201   1.083       .  S
C3197      C3198   1.401       .  A
C3198      F3199   1.357       .  S
C3203      C3204   1.407       .  A
C3203      C3208   1.388       .  A
C3203      H3210   1.083       .  S
C3204      C3205   1.405       .  A
C3205      C3206   1.390       .  A
C3205      F3212   1.358       .  S
C3206      C3207   1.400       .  A
C3206      H3211   1.084       .  S
C3207      C3208   1.396       .  A
C3208      F3209   1.357       .  S
C3213      C3214   1.420       .  A
C3213      C3218   1.433       .  A
C3213      H3220   1.082       .  S
C3214      C3215   1.404       .  A
C3215      C3216   1.389       .  A
C3215      F3222   1.360       .  S
C3216      C3217   1.410       .  A
C3216      H3221   1.080       .  S
C3217      C3218   1.416       .  A
C3218      F3219   1.356       .  S
C3223      C3224   1.403       .  A
C3223      C3228   1.392       .  A
C3223      H3230   1.084       .  S
C3224      C3225   1.397       .  A
C3225      C3226   1.378       .  A
C3225      F3232   1.359       .  S
C3226      C3227   1.399       .  A
C3226      H3231   1.085   1_455  S
C3227      C3228   1.399       .  A
C3228      F3229   1.357       .  S
C3233      C3234   1.409       .  A
C3233      C3238   1.395   1_655  A
C3233      H3240   1.084   1_655  S
C3234      C3235   1.405       .  A
C3235      C3236   1.403       .  A
C3235      F3242   1.357       .  S
C3236      C3237   1.404       .  A
C3236      H3241   1.081       .  S
C3237      C3238   1.399   1_655  A
C3238      F3239   1.358       .  S
C3243      C3244   1.405       .  A
C3243      C3248   1.404       .  A
C3243      H3250   1.084       .  S
C3244      C3245   1.404       .  A
C3245      C3246   1.399   1_554  A
C3245      F3252   1.358   1_554  S
C3246      C3247   1.406   1_556  A
C3246      H3251   1.084       .  S
C3247      C3248   1.407       .  A
C3248      F3249   1.357       .  S
C3253      C3254   1.404       .  A
C3253      C3258   1.392       .  A
C3253      H3260   1.084       .  S
C3254      C3255   1.399       .  A
C3255      C3256   1.389       .  A
C3255      F3262   1.358   1_455  S
C3256      C3257   1.401       .  A
C3256      H3261   1.084       .  S
C3257      C3258   1.395       .  A
C3258      F3259   1.357       .  S
C3263      C3264   1.405       .  A
C3263      C3268   1.403       .  A
C3263      H3270   1.083       .  S
C3264      C3265   1.409   1_455  A
C3265      C3266   1.397   1_655  A
C3265      F3272   1.357       .  S
C3266      C3267   1.401       .  A
C3266      H3271   1.084   1_455  S
C3267      C3268   1.405       .  A
C3268      F3269   1.357       .  S
C3273      C3274   1.403       .  A
C3273      C3278   1.402       .  A
C3273      H3280   1.083       .  S
C3274      C3275   1.407       .  A
C3275      C3276   1.398       .  A
C3275      F3282   1.357       .  S
C3276      C3277   1.400       .  A
C3276      H3281   1.084       .  S
C3277      C3278   1.406       .  A
C3278      F3279   1.356       .  S
C3283      C3284   1.412       .  A
C3283      C3288   1.416       .  A
C3283      H3290   1.083       .  S
C3284      C3285   1.416       .  A
C3285      C3286   1.407       .  A
C3285      F3292   1.358       .  S
C3286      C3287   1.408       .  A
C3286      H3291   1.082       .  S
C3287      C3288   1.417       .  A
C3288      F3289   1.357       .  S
C3293      C3294   1.403       .  A
C3293      C3298   1.403       .  A
C3293      H3300   1.083       .  S
C3294      C3295   1.412       .  A
C3295      C3296   1.395       .  A
C3295      F3302   1.359       .  S
C3296      C3297   1.396       .  A
C3296      H3301   1.083       .  S
C3297      C3298   1.405       .  A
C3298      F3299   1.355       .  S
C3303      C3304   1.402       .  A
C3303      C3308   1.399       .  A
C3303      H3310   1.082       .  S
C3304      C3305   1.407       .  A
C3305      C3306   1.406       .  A
C3305      F3312   1.354   1_565  S
C3306      C3307   1.406       .  A
C3306      H3311   1.083       .  S
C3307      C3308   1.405       .  A
C3308      F3309   1.353       .  S
C3313      C3314   1.402       .  A
C3313      C3318   1.396       .  A
C3313      H3320   1.084       .  S
C3314      C3315   1.398       .  A
C3315      C3316   1.381       .  A
C3315      F3322   1.358       .  S
C3316      C3317   1.402       .  A
C3316      H3321   1.084       .  S
C3317      C3318   1.405       .  A
C3318      F3319   1.358       .  S
C3323      C3324   1.412       .  A
C3323      C3328   1.405       .  A
C3323      H3330   1.076       .  S
C3324      C3325   1.401       .  A
C3325      C3326   1.413       .  A
C3325      F3332   1.357       .  S
C3326      C3327   1.419       .  A
C3326      H3331   1.084       .  S
C3327      C3328   1.397       .  A
C3328      F3329   1.357       .  S
C3333      C3334   1.397       .  A
C3333      C3338   1.394       .  A
C3333      H3340   1.083       .  S
C3334      C3335   1.402       .  A
C3335      C3336   1.379       .  A
C3335      F3342   1.356       .  S
C3336      C3337   1.390       .  A
C3336      H3341   1.083       .  S
C3337      C3338   1.404       .  A
C3338      F3339   1.358       .  S
C3343      C3344   1.401   1_554  A
C3343      C3348   1.399   1_554  A
C3343      H3350   1.084       .  S
C3344      C3345   1.404       .  A
C3345      C3346   1.401       .  A
C3345      F3352   1.357       .  S
C3346      C3347   1.404       .  A
C3346      H3351   1.083       .  S
C3347      C3348   1.409       .  A
C3348      F3349   1.358   1_556  S
C3353      C3354   1.396       .  A
C3353      C3358   1.406   1_565  A
C3353      H3360   1.083       .  S
C3354      C3355   1.416       .  A
C3355      C3356   1.410       .  A
C3355      F3362   1.354       .  S
C3356      C3357   1.400   1_565  A
C3356      H3361   1.083       .  S
C3357      C3358   1.423       .  A
C3358      F3359   1.357       .  S
C3363      C3364   1.397       .  A
C3363      C3368   1.394       .  A
C3363      H3370   1.083       .  S
C3364      C3365   1.403       .  A
C3365      C3366   1.384       .  A
C3365      F3372   1.357       .  S
C3366      C3367   1.394       .  A
C3366      H3371   1.084       .  S
C3367      C3368   1.404       .  A
C3368      F3369   1.358       .  S
C3373      C3374   1.395       .  A
C3373      C3378   1.385       .  A
C3373      H3380   1.085       .  S
C3374      C3375   1.397       .  A
C3375      C3376   1.392       .  A
C3375      F3382   1.353       .  S
C3376      C3377   1.406       .  A
C3376      H3381   1.083       .  S
C3377      C3378   1.408       .  A
C3378      F3379   1.358       .  S
C3383      C3384   1.396       .  A
C3383      C3388   1.408       .  A
C3383      H3390   1.083       .  S
C3384      C3385   1.418       .  A
C3385      C3386   1.411   1_655  A
C3385      F3392   1.356   1_655  S
C3386      C3387   1.401       .  A
C3386      H3391   1.083       .  S
C3387      C3388   1.425   1_455  A
C3388      F3389   1.358       .  S
C3393      C3394   1.407       .  A
C3393      C3398   1.389       .  A
C3393      H3400   1.083       .  S
C3394      C3395   1.402       .  A
C3395      C3396   1.382       .  A
C3395      F3402   1.357       .  S
C3396      C3397   1.397       .  A
C3396      H3401   1.082       .  S
C3397      C3398   1.395       .  A
C3398      F3399   1.358       .  S
C3403      C3404   1.415       .  A
C3403      C3408   1.416       .  A
C3403      H3410   1.083       .  S
C3404      C3405   1.411       .  A
C3405      C3406   1.408       .  A
C3405      F3412   1.357       .  S
C3406      C3407   1.412       .  A
C3406      H3411   1.083       .  S
C3407      C3408   1.414       .  A
C3408      F3409   1.357       .  S
C3413      C3414   1.401       .  A
C3413      C3418   1.400       .  A
C3413      H3420   1.084       .  S
C3414      C3415   1.406       .  A
C3415      C3416   1.402       .  A
C3415      F3422   1.357       .  S
C3416      C3417   1.404       .  A
C3416      H3421   1.083       .  S
C3417      C3418   1.408       .  A
C3418      F3419   1.358       .  S
C3423      C3424   1.406       .  A
C3423      C3428   1.419       .  A
C3423      H3430   1.083       .  S
C3424      C3425   1.423       .  A
C3425      C3426   1.401       .  A
C3425      F3432   1.352       .  S
C3426      C3427   1.392       .  A
C3426      H3431   1.084       .  S
C3427      C3428   1.418       .  A
C3428      F3429   1.357       .  S
C3433      C3434   1.404       .  A
C3433      C3438   1.405       .  A
C3433      H3440   1.083       .  S
C3434      C3435   1.404       .  A
C3435      C3436   1.391       .  A
C3435      F3442   1.355       .  S
C3436      C3437   1.399       .  A
C3436      H3441   1.083       .  S
C3437      C3438   1.408       .  A
C3438      F3439   1.355       .  S
C3443      C3444   1.403       .  A
C3443      C3448   1.386       .  A
C3443      H3450   1.083       .  S
C3444      C3445   1.399       .  A
C3445      C3446   1.384       .  A
C3445      F3452   1.356       .  S
C3446      C3447   1.401       .  A
C3446      H3451   1.084       .  S
C3447      C3448   1.398       .  A
C3448      F3449   1.357       .  S
C3453      C3454   1.412   1_565  A
C3453      C3458   1.414       .  A
C3453      H3460   1.083   1_455  S
C3454      C3455   1.409   1_545  A
C3455      C3456   1.406       .  A
C3455      F3462   1.357   1_565  S
C3456      C3457   1.412       .  A
C3456      H3461   1.083       .  S
C3457      C3458   1.412       .  A
C3458      F3459   1.357   1_455  S
C3463      C3464   1.400       .  A
C3463      C3468   1.384       .  A
C3463      H3470   1.084   1_545  S
C3464      C3465   1.405       .  A
C3465      C3466   1.397       .  A
C3465      F3472   1.358       .  S
C3466      C3467   1.401       .  A
C3466      H3471   1.084       .  S
C3467      C3468   1.399       .  A
C3468      F3469   1.358       .  S
C3473      C3474   1.410   1_565  A
C3473      C3478   1.398       .  A
C3473      H3480   1.084       .  S
C3474      C3475   1.404       .  A
C3475      C3476   1.403       .  A
C3475      F3482   1.356       .  S
C3476      C3477   1.404   1_545  A
C3476      H3481   1.080       .  S
C3477      C3478   1.401       .  A
C3478      F3479   1.358       .  S
C3483      C3484   1.401       .  A
C3483      C3488   1.388       .  A
C3483      H3490   1.083       .  S
C3484      C3485   1.394       .  A
C3485      C3486   1.390       .  A
C3485      F3492   1.357       .  S
C3486      C3487   1.404       .  A
C3486      H3491   1.084       .  S
C3487      C3488   1.396       .  A
C3488      F3489   1.358       .  S
C3493      C3494   1.400       .  A
C3493      C3498   1.388       .  A
C3493      H3500   1.085       .  S
C3494      C3495   1.418       .  A
C3495      C3496   1.431       .  A
C3495      F3502   1.356       .  S
C3496      C3497   1.416       .  A
C3496      H3501   1.082       .  S
C3497      C3498   1.421       .  A
C3498      F3499   1.358       .  S
C3503      C3504   1.412       .  A
C3503      C3508   1.417       .  A
C3503      H3510   1.083       .  S
C3504      C3505   1.416       .  A
C3505      C3506   1.406       .  A
C3505      F3512   1.357       .  S
C3506      C3507   1.407       .  A
C3506      H3511   1.083       .  S
C3507      C3508   1.414       .  A
C3508      F3509   1.357       .  S
C3513      C3514   1.401       .  A
C3513      C3518   1.400       .  A
C3513      H3520   1.084       .  S
C3514      C3515   1.405       .  A
C3515      C3516   1.401       .  A
C3515      F3522   1.357       .  S
C3516      C3517   1.404       .  A
C3516      H3521   1.084       .  S
C3517      C3518   1.407       .  A
C3518      F3519   1.358       .  S
C3523      C3524   1.398       .  A
C3523      C3528   1.381       .  A
C3523      H3530   1.084       .  S
C3524      C3525   1.413       .  A
C3525      C3526   1.395       .  A
C3525      F3532   1.358       .  S
C3526      C3527   1.395       .  A
C3526      H3531   1.084       .  S
C3527      C3528   1.402       .  A
C3528      F3529   1.355       .  S
C3533      C3534   1.399       .  A
C3533      C3538   1.380       .  A
C3533      H3540   1.085       .  S
C3534      C3535   1.401       .  A
C3535      C3536   1.400       .  A
C3535      F3542   1.357       .  S
C3536      C3537   1.405       .  A
C3536      H3541   1.083       .  S
C3537      C3538   1.398       .  A
C3538      F3539   1.357       .  S
C3543      C3544   1.409       .  A
C3543      C3548   1.413   1_554  A
C3543      H3550   1.083       .  S
C3544      C3545   1.415       .  A
C3545      C3546   1.418   1_554  A
C3545      F3552   1.357   1_545  S
C3546      C3547   1.413       .  A
C3546      H3551   1.083   1_545  S
C3547      C3548   1.417       .  A
C3548      F3549   1.357       .  S
C3553      C3554   1.405       .  A
C3553      C3558   1.405       .  A
C3553      H3560   1.083       .  S
C3554      C3555   1.410       .  A
C3555      C3556   1.397   1_554  A
C3555      F3562   1.358   1_554  S
C3556      C3557   1.400   1_556  A
C3556      H3561   1.083       .  S
C3557      C3558   1.406       .  A
C3558      F3559   1.356       .  S
C3563      C3564   1.398       .  A
C3563      C3568   1.400       .  A
C3563      H3570   1.083       .  S
C3564      C3565   1.402       .  A
C3565      C3566   1.376       .  A
C3565      F3572   1.358       .  S
C3566      C3567   1.396       .  A
C3566      H3571   1.084       .  S
C3567      C3568   1.411       .  A
C3568      F3569   1.357       .  S
C3573      C3574   1.419       .  A
C3573      C3578   1.431       .  A
C3573      H3580   1.080       .  S
C3574      C3575   1.398       .  A
C3575      C3576   1.394       .  A
C3575      F3582   1.359       .  S
C3576      C3577   1.416       .  A
C3576      H3581   1.075       .  S
C3577      C3578   1.412       .  A
C3578      F3579   1.356       .  S
C3583      C3584   1.420       .  A
C3583      C3588   1.406       .  A
C3583      H3590   1.082       .  S
C3584      C3585   1.407   1_556  A
C3585      C3586   1.418       .  A
C3585      F3592   1.356       .  S
C3586      C3587   1.416       .  A
C3586      H3591   1.083       .  S
C3587      C3588   1.399   1_554  A
C3588      F3589   1.357       .  S
C3593      C3594   1.392       .  A
C3593      C3598   1.379       .  A
C3593      H3600   1.085       .  S
C3594      C3595   1.399       .  A
C3595      C3596   1.397       .  A
C3595      F3602   1.357       .  S
C3596      C3597   1.407       .  A
C3596      H3601   1.083       .  S
C3597      C3598   1.410       .  A
C3598      F3599   1.358       .  S
C3603      C3604   1.408   1_565  A
C3603      C3608   1.400       .  A
C3603      H3610   1.084   1_565  S
C3604      C3605   1.415   1_545  A
C3605      C3606   1.424       .  A
C3605      F3612   1.357   1_565  S
C3606      C3607   1.414       .  A
C3606      H3611   1.083       .  S
C3607      C3608   1.411       .  A
C3608      F3609   1.358       .  S
C3613      C3614   1.407       .  A
C3613      C3618   1.405       .  A
C3613      H3620   1.082       .  S
C3614      C3615   1.408       .  A
C3615      C3616   1.389       .  A
C3615      F3622   1.350       .  S
C3616      C3617   1.395       .  A
C3616      H3621   1.084       .  S
C3617      C3618   1.405       .  A
C3618      F3619   1.357       .  S
C3623      C3624   1.397       .  A
C3623      C3628   1.381       .  A
C3623      H3630   1.084       .  S
C3624      C3625   1.399       .  A
C3625      C3626   1.395       .  A
C3625      F3632   1.357       .  S
C3626      C3627   1.402       .  A
C3626      H3631   1.083       .  S
C3627      C3628   1.395       .  A
C3628      F3629   1.350       .  S
C3633      C3634   1.405       .  A
C3633      C3638   1.389       .  A
C3633      H3640   1.083       .  S
C3634      C3635   1.402       .  A
C3635      C3636   1.389       .  A
C3635      F3642   1.358       .  S
C3636      C3637   1.401       .  A
C3636      H3641   1.083       .  S
C3637      C3638   1.398       .  A
C3638      F3639   1.358       .  S
C3643      C3644   1.390       .  A
C3643      C3648   1.407       .  A
C3643      H3650   1.082       .  S
C3644      C3645   1.411       .  A
C3645      C3646   1.411       .  A
C3645      F3652   1.340       .  S
C3646      C3647   1.395       .  A
C3646      H3651   1.081       .  S
C3647      C3648   1.415       .  A
C3648      F3649   1.336       .  S
C3653      C3654   1.404       .  A
C3653      C3658   1.402       .  A
C3653      H3660   1.083       .  S
C3654      C3655   1.401       .  A
C3655      C3656   1.394       .  A
C3655      F3662   1.358       .  S
C3656      C3657   1.405       .  A
C3656      H3661   1.081       .  S
C3657      C3658   1.406       .  A
C3658      F3659   1.356       .  S
C3663      C3664   1.407       .  A
C3663      C3668   1.407       .  A
C3663      H3670   1.084       .  S
C3664      C3665   1.404       .  A
C3665      C3666   1.401       .  A
C3665      F3672   1.357       .  S
C3666      C3667   1.407       .  A
C3666      H3671   1.084       .  S
C3667      C3668   1.406       .  A
C3668      F3669   1.357       .  S
C3673      C3674   1.399       .  A
C3673      C3678   1.379       .  A
C3673      H3680   1.082       .  S
C3674      C3675   1.400       .  A
C3675      C3676   1.394       .  A
C3675      F3682   1.357       .  S
C3676      C3677   1.403       .  A
C3676      H3681   1.084       .  S
C3677      C3678   1.397       .  A
C3678      F3679   1.359       .  S
C3683      C3684   1.395       .  A
C3683      C3688   1.382       .  A
C3683      H3690   1.085       .  S
C3684      C3685   1.396       .  A
C3685      C3686   1.391       .  A
C3685      F3692   1.357       .  S
C3686      C3687   1.405       .  A
C3686      H3691   1.081       .  S
C3687      C3688   1.407       .  A
C3688      F3689   1.358       .  S
C3693      C3694   1.415       .  A
C3693      C3698   1.418       .  A
C3693      H3700   1.083   1_545  S
C3694      C3695   1.399       .  A
C3695      C3696   1.401       .  A
C3695      F3702   1.358       .  S
C3696      C3697   1.416       .  A
C3696      H3701   1.083       .  S
C3697      C3698   1.409       .  A
C3698      F3699   1.357   1_545  S
C3703      C3704   1.400       .  A
C3703      C3708   1.384       .  A
C3703      H3710   1.084       .  S
C3704      C3705   1.401       .  A
C3705      C3706   1.388       .  A
C3705      F3712   1.358   1_545  S
C3706      C3707   1.400       .  A
C3706      H3711   1.082       .  S
C3707      C3708   1.400       .  A
C3708      F3709   1.358       .  S
C3713      C3714   1.404       .  A
C3713      C3718   1.402       .  A
C3713      H3720   1.084       .  S
C3714      C3715   1.403       .  A
C3715      C3716   1.399       .  A
C3715      F3722   1.357       .  S
C3716      C3717   1.404       .  A
C3716      H3721   1.081       .  S
C3717      C3718   1.407       .  A
C3718      F3719   1.358       .  S
C3723      C3724   1.414       .  A
C3723      C3728   1.416       .  A
C3723      H3730   1.083       .  S
C3724      C3725   1.412       .  A
C3725      C3726   1.405       .  A
C3725      F3732   1.357       .  S
C3726      C3727   1.410       .  A
C3726      H3731   1.082       .  S
C3727      C3728   1.414       .  A
C3728      F3729   1.357       .  S
C3733      C3734   1.400       .  A
C3733      C3738   1.396   1_565  A
C3733      H3740   1.083   1_565  S
C3734      C3735   1.406       .  A
C3735      C3736   1.402       .  A
C3735      F3742   1.357       .  S
C3736      C3737   1.404       .  A
C3736      H3741   1.084       .  S
C3737      C3738   1.407   1_565  A
C3738      F3739   1.357       .  S
C3743      C3744   1.411       .  A
C3743      C3748   1.404       .  A
C3743      H3750   1.083       .  S
C3744      C3745   1.412       .  A
C3745      C3746   1.414       .  A
C3745      F3752   1.357       .  S
C3746      C3747   1.412       .  A
C3746      H3751   1.083       .  S
C3747      C3748   1.409       .  A
C3748      F3749   1.358       .  S
C3753      C3754   1.405       .  A
C3753      C3758   1.406       .  A
C3753      H3760   1.083       .  S
C3754      C3755   1.401       .  A
C3755      C3756   1.389       .  A
C3755      F3762   1.355       .  S
C3756      C3757   1.402       .  A
C3756      H3761   1.082       .  S
C3757      C3758   1.406       .  A
C3758      F3759   1.356       .  S
C3763      C3764   1.405       .  A
C3763      C3768   1.402       .  A
C3763      H3770   1.083       .  S
C3764      C3765   1.405       .  A
C3765      C3766   1.397       .  A
C3765      F3772   1.358       .  S
C3766      C3767   1.402       .  A
C3766      H3771   1.083       .  S
C3767      C3768   1.404       .  A
C3768      F3769   1.357       .  S
C3773      C3774   1.399       .  A
C3773      C3778   1.388       .  A
C3773      H3780   1.082       .  S
C3774      C3775   1.402       .  A
C3775      C3776   1.390       .  A
C3775      F3782   1.358       .  S
C3776      C3777   1.402       .  A
C3776      H3781   1.081       .  S
C3777      C3778   1.399       .  A
C3778      F3779   1.352       .  S
C3783      C3784   1.402       .  A
C3783      C3788   1.404       .  A
C3783      H3790   1.083       .  S
C3784      C3785   1.404       .  A
C3785      C3786   1.378       .  A
C3785      F3792   1.354       .  S
C3786      C3787   1.391       .  A
C3786      H3791   1.084       .  S
C3787      C3788   1.407       .  A
C3788      F3789   1.357       .  S
C3793      C3794   1.411       .  A
C3793      C3798   1.407       .  A
C3793      H3800   1.083       .  S
C3794      C3795   1.413       .  A
C3795      C3796   1.415       .  A
C3795      F3802   1.357       .  S
C3796      C3797   1.413   1_565  A
C3796      H3801   1.083   1_565  S
C3797      C3798   1.413   1_545  A
C3798      F3799   1.357   1_565  S
C3803      C3804   1.405       .  A
C3803      C3808   1.390       .  A
C3803      H3810   1.084       .  S
C3804      C3805   1.411       .  A
C3805      C3806   1.413       .  A
C3805      F3812   1.356       .  S
C3806      C3807   1.407       .  A
C3806      H3811   1.083       .  S
C3807      C3808   1.400       .  A
C3808      F3809   1.349       .  S
C3813      C3814   1.399       .  A
C3813      C3818   1.394       .  A
C3813      H3820   1.082       .  S
C3814      C3815   1.404       .  A
C3815      C3816   1.401       .  A
C3815      F3822   1.357       .  S
C3816      C3817   1.406       .  A
C3816      H3821   1.084       .  S
C3817      C3818   1.403       .  A
C3818      F3819   1.354       .  S
C3823      C3824   1.404       .  A
C3823      C3828   1.387       .  A
C3823      H3830   1.083       .  S
C3824      C3825   1.398       .  A
C3825      C3826   1.395       .  A
C3825      F3832   1.357       .  S
C3826      C3827   1.404       .  A
C3826      H3831   1.084       .  S
C3827      C3828   1.395       .  A
C3828      F3829   1.357       .  S
C3833      C3834   1.416       .  A
C3833      C3838   1.403       .  A
C3833      H3840   1.079       .  S
C3834      C3835   1.403       .  A
C3835      C3836   1.420       .  A
C3835      F3842   1.356       .  S
C3836      C3837   1.417       .  A
C3836      H3841   1.077       .  S
C3837      C3838   1.399       .  A
C3838      F3839   1.357       .  S
C3843      C3844   1.410       .  A
C3843      C3848   1.414   1_554  A
C3843      H3850   1.083       .  S
C3844      C3845   1.416       .  A
C3845      C3846   1.408   1_554  A
C3845      F3852   1.357       .  S
C3846      C3847   1.407       .  A
C3846      H3851   1.083       .  S
C3847      C3848   1.414       .  A
C3848      F3849   1.357       .  S
C3853      C3854   1.404       .  A
C3853      C3858   1.403       .  A
C3853      H3860   1.082       .  S
C3854      C3855   1.401       .  A
C3855      C3856   1.398       .  A
C3855      F3862   1.357       .  S
C3856      C3857   1.407       .  A
C3856      H3861   1.084       .  S
C3857      C3858   1.405       .  A
C3858      F3859   1.356       .  S
C3863      C3864   1.398       .  A
C3863      C3868   1.389       .  A
C3863      H3870   1.084       .  S
C3864      C3865   1.404       .  A
C3865      C3866   1.389       .  A
C3865      F3872   1.358       .  S
C3866      C3867   1.401       .  A
C3866      H3871   1.084       .  S
C3867      C3868   1.406       .  A
C3868      F3869   1.358       .  S
C3873      C3874   1.399       .  A
C3873      C3878   1.385       .  A
C3873      H3880   1.084       .  S
C3874      C3875   1.405       .  A
C3875      C3876   1.394       .  A
C3875      F3882   1.358       .  S
C3876      C3877   1.397       .  A
C3876      H3881   1.082       .  S
C3877      C3878   1.400       .  A
C3878      F3879   1.358       .  S
C3883      C3884   1.409       .  A
C3883      C3888   1.403   1_565  A
C3883      H3890   1.083       .  S
C3884      C3885   1.413       .  A
C3885      C3886   1.415   1_565  A
C3885      F3892   1.357       .  S
C3886      C3887   1.412       .  A
C3886      H3891   1.083       .  S
C3887      C3888   1.411       .  A
C3888      F3889   1.358       .  S
C3893      C3894   1.401       .  A
C3893      C3898   1.399       .  A
C3893      H3900   1.082       .  S
C3894      C3895   1.400       .  A
C3895      C3896   1.395       .  A
C3895      F3902   1.358       .  S
C3896      C3897   1.406       .  A
C3896      H3901   1.084       .  S
C3897      C3898   1.405       .  A
C3898      F3899   1.356       .  S
C3903      C3904   1.404       .  A
C3903      C3908   1.402       .  A
C3903      H3910   1.082       .  S
C3904      C3905   1.411       .  A
C3905      C3906   1.406       .  A
C3905      F3912   1.358       .  S
C3906      C3907   1.403       .  A
C3906      H3911   1.084   1_565  S
C3907      C3908   1.405       .  A
C3908      F3909   1.357       .  S
C3913      C3914   1.398       .  A
C3913      C3918   1.393       .  A
C3913      H3920   1.077       .  S
C3914      C3915   1.399       .  A
C3915      C3916   1.384       .  A
C3915      F3922   1.354       .  S
C3916      C3917   1.400       .  A
C3916      H3921   1.084       .  S
C3917      C3918   1.404       .  A
C3918      F3919   1.358       .  S
C3923      C3924   1.418       .  A
C3923      C3928   1.393       .  A
C3923      H3930   1.081       .  S
C3924      C3925   1.412       .  A
C3925      C3926   1.427       .  A
C3925      F3932   1.356       .  S
C3926      C3927   1.418       .  A
C3926      H3931   1.082       .  S
C3927      C3928   1.400       .  A
C3928      F3929   1.359       .  S
C3933      C3934   1.398   1_455  A
C3933      C3938   1.407       .  A
C3933      H3940   1.083       .  S
C3934      C3935   1.420       .  A
C3935      C3936   1.407       .  A
C3935      F3942   1.357       .  S
C3936      C3937   1.398   1_655  A
C3936      H3941   1.083       .  S
C3937      C3938   1.421       .  A
C3938      F3939   1.357       .  S
C3943      C3944   1.398       .  A
C3943      C3948   1.389       .  A
C3943      H3950   1.084       .  S
C3944      C3945   1.402       .  A
C3945      C3946   1.388       .  A
C3945      F3952   1.358       .  S
C3946      C3947   1.400       .  A
C3946      H3951   1.083       .  S
C3947      C3948   1.406       .  A
C3948      F3949   1.357       .  S
C3953      C3954   1.418   1_556  A
C3953      C3958   1.412       .  A
C3953      H3960   1.084       .  S
C3954      C3955   1.402       .  A
C3955      C3956   1.411       .  A
C3955      F3962   1.357       .  S
C3956      C3957   1.420   1_554  A
C3956      H3961   1.083       .  S
C3957      C3958   1.403       .  A
C3958      F3959   1.357       .  S
C3963      C3964   1.390       .  A
C3963      C3968   1.379       .  A
C3963      H3970   1.085       .  S
C3964      C3965   1.402       .  A
C3965      C3966   1.397       .  A
C3965      F3972   1.356       .  S
C3966      C3967   1.402       .  A
C3966      H3971   1.083       .  S
C3967      C3968   1.410       .  A
C3968      F3969   1.358       .  S
C3973      C3974   1.414       .  A
C3973      C3978   1.413       .  A
C3973      H3980   1.080       .  S
C3974      C3975   1.399       .  A
C3975      C3976   1.408       .  A
C3975      F3982   1.357       .  S
C3976      C3977   1.413       .  A
C3976      H3981   1.076       .  S
C3977      C3978   1.402       .  A
C3978      F3979   1.356       .  S
C3983      C3984   1.406       .  A
C3983      C3988   1.398       .  A
C3983      H3990   1.084       .  S
C3984      C3985   1.407       .  A
C3985      C3986   1.402       .  A
C3985      F3992   1.357       .  S
C3986      C3987   1.403       .  A
C3986      H3991   1.084       .  S
C3987      C3988   1.403       .  A
C3988      F3989   1.358       .  S
C3993      C3994   1.409       .  A
C3993      C3998   1.403       .  A
C3993      H4000   1.083       .  S
C3994      C3995   1.416       .  A
C3995      C3996   1.416       .  A
C3995      F4002   1.357       .  S
C3996      C3997   1.410       .  A
C3996      H4001   1.083       .  S
C3997      C3998   1.412       .  A
C3998      F3999   1.358       .  S
C4003      C4004   1.406       .  A
C4003      C4008   1.396       .  A
C4003      H4010   1.084       .  S
C4004      C4005   1.405       .  A
C4005      C4006   1.401       .  A
C4005      F4012   1.356       .  S
C4006      C4007   1.402       .  A
C4006      H4011   1.083       .  S
C4007      C4008   1.401       .  A
C4008      F4009   1.358       .  S
C4013      C4014   1.404       .  A
C4013      C4018   1.403       .  A
C4013      H4020   1.083       .  S
C4014      C4015   1.412       .  A
C4015      C4016   1.399       .  A
C4015      F4022   1.358       .  S
C4016      C4017   1.400       .  A
C4016      H4021   1.084       .  S
C4017      C4018   1.405       .  A
C4018      F4019   1.355       .  S
C4023      C4024   1.400       .  A
C4023      C4028   1.389       .  A
C4023      H4030   1.083       .  S
C4024      C4025   1.395       .  A
C4025      C4026   1.390       .  A
C4025      F4032   1.358       .  S
C4026      C4027   1.404       .  A
C4026      H4031   1.084       .  S
C4027      C4028   1.397       .  A
C4028      F4029   1.358       .  S
C4033      C4034   1.398       .  A
C4033      C4038   1.381       .  A
C4033      H4040   1.084       .  S
C4034      C4035   1.405       .  A
C4035      C4036   1.396       .  A
C4035      F4042   1.357       .  S
C4036      C4037   1.400       .  A
C4036      H4041   1.083       .  S
C4037      C4038   1.401       .  A
C4038      F4039   1.358       .  S
C4043      C4044   1.412       .  A
C4043      C4048   1.418   1_455  A
C4043      H4050   1.083   1_554  S
C4044      C4045   1.417       .  A
C4045      C4046   1.405   1_455  A
C4045      F4052   1.357       .  S
C4046      C4047   1.405       .  A
C4046      H4051   1.084       .  S
C4047      C4048   1.413       .  A
C4048      F4049   1.357   1_554  S
C4053      C4054   1.405       .  A
C4053      C4058   1.400   1_455  A
C4053      H4060   1.084   1_455  S
C4054      C4055   1.403       .  A
C4055      C4056   1.397       .  A
C4055      F4062   1.357       .  S
C4056      C4057   1.403       .  A
C4056      H4061   1.082       .  S
C4057      C4058   1.402   1_455  A
C4058      F4059   1.356       .  S
C4063      C4064   1.396       .  A
C4063      C4068   1.390       .  A
C4063      H4070   1.084       .  S
C4064      C4065   1.400       .  A
C4065      C4066   1.387       .  A
C4065      F4072   1.359       .  S
C4066      C4067   1.402       .  A
C4066      H4071   1.083       .  S
C4067      C4068   1.409       .  A
C4068      F4069   1.358       .  S
C4073      C4074   1.400       .  A
C4073      C4078   1.397       .  A
C4073      H4080   1.081       .  S
C4074      C4075   1.400       .  A
C4075      C4076   1.383       .  A
C4075      F4082   1.356       .  S
C4076      C4077   1.400       .  A
C4076      H4081   1.084   1_554  S
C4077      C4078   1.406       .  A
C4078      F4079   1.357       .  S
C4083      C4084   1.416       .  A
C4083      C4088   1.422       .  A
C4083      H4090   1.079       .  S
C4084      C4085   1.397       .  A
C4085      C4086   1.397       .  A
C4085      F4092   1.358       .  S
C4086      C4087   1.417       .  A
C4086      H4091   1.079       .  S
C4087      C4088   1.407       .  A
C4088      F4089   1.356       .  S
C4093      C4094   1.411       .  A
C4093      C4098   1.416       .  A
C4093      H4100   1.083       .  S
C4094      C4095   1.413       .  A
C4095      C4096   1.404       .  A
C4095      F4102   1.358       .  S
C4096      C4097   1.409       .  A
C4096      H4101   1.083       .  S
C4097      C4098   1.415       .  A
C4098      F4099   1.357       .  S
C4103      C4104   1.407       .  A
C4103      C4108   1.396       .  A
C4103      H4110   1.084       .  S
C4104      C4105   1.407       .  A
C4105      C4106   1.408       .  A
C4105      F4112   1.357       .  S
C4106      C4107   1.407       .  A
C4106      H4111   1.083       .  S
C4107      C4108   1.403       .  A
C4108      F4109   1.356       .  S
C4113      C4114   1.408       .  A
C4113      C4118   1.402       .  A
C4113      H4120   1.084       .  S
C4114      C4115   1.404       .  A
C4115      C4116   1.400       .  A
C4115      F4122   1.352       .  S
C4116      C4117   1.401       .  A
C4116      H4121   1.083       .  S
C4117      C4118   1.403       .  A
C4118      F4119   1.358       .  S
C4123      C4124   1.401       .  A
C4123      C4128   1.379       .  A
C4123      H4130   1.083       .  S
C4124      C4125   1.412       .  A
C4125      C4126   1.394       .  A
C4125      F4132   1.357       .  S
C4126      C4127   1.395       .  A
C4126      H4131   1.084       .  S
C4127      C4128   1.397       .  A
C4128      F4129   1.356       .  S
C4133      C4134   1.404       .  A
C4133      C4138   1.394       .  A
C4133      H4140   1.084       .  S
C4134      C4135   1.399       .  A
C4135      C4136   1.385       .  A
C4135      F4142   1.358       .  S
C4136      C4137   1.398       .  A
C4136      H4141   1.081       .  S
C4137      C4138   1.397       .  A
C4138      F4139   1.356       .  S
C4143      C4144   1.410       .  A
C4143      C4148   1.403       .  A
C4143      H4150   1.083       .  S
C4144      C4145   1.412       .  A
C4145      C4146   1.413   1_554  A
C4145      F4152   1.357       .  S
C4146      C4147   1.409       .  A
C4146      H4151   1.083       .  S
C4147      C4148   1.406   1_556  A
C4148      F4149   1.358       .  S
C4153      C4154   1.406       .  A
C4153      C4158   1.395       .  A
C4153      H4160   1.084       .  S
C4154      C4155   1.407       .  A
C4155      C4156   1.404       .  A
C4155      F4162   1.356       .  S
C4156      C4157   1.403       .  A
C4156      H4161   1.083       .  S
C4157      C4158   1.402       .  A
C4158      F4159   1.357       .  S
C4163      C4164   1.403       .  A
C4163      C4168   1.401       .  A
C4163      H4170   1.084       .  S
C4164      C4165   1.409       .  A
C4165      C4166   1.396       .  A
C4165      F4172   1.358       .  S
C4166      C4167   1.399       .  A
C4166      H4171   1.082       .  S
C4167      C4168   1.404       .  A
C4168      F4169   1.356       .  S
C4173      C4174   1.399       .  A
C4173      C4178   1.381       .  A
C4173      H4180   1.083       .  S
C4174      C4175   1.400       .  A
C4175      C4176   1.398       .  A
C4175      F4182   1.357       .  S
C4176      C4177   1.404       .  A
C4176      H4181   1.083       .  S
C4177      C4178   1.396       .  A
C4178      F4179   1.358       .  S
C4183      C4184   1.417       .  A
C4183      C4188   1.393       .  A
C4183      H4190   1.078       .  S
C4184      C4185   1.410       .  A
C4185      C4186   1.425       .  A
C4185      F4192   1.356       .  S
C4186      C4187   1.418       .  A
C4186      H4191   1.081       .  S
C4187      C4188   1.397       .  A
C4188      F4189   1.359       .  S
C4193      C4194   1.411   1_565  A
C4193      C4198   1.403       .  A
C4193      H4200   1.083   1_565  S
C4194      C4195   1.414   1_545  A
C4195      C4196   1.419       .  A
C4195      F4202   1.357       .  S
C4196      C4197   1.413       .  A
C4196      H4201   1.083       .  S
C4197      C4198   1.411       .  A
C4198      F4199   1.358       .  S
C4203      C4204   1.406       .  A
C4203      C4208   1.394       .  A
C4203      H4210   1.084       .  S
C4204      C4205   1.406       .  A
C4205      C4206   1.404       .  A
C4205      F4212   1.356       .  S
C4206      C4207   1.404       .  A
C4206      H4211   1.083       .  S
C4207      C4208   1.402       .  A
C4208      F4209   1.355       .  S
C4213      C4214   1.400       .  A
C4213      C4218   1.399       .  A
C4213      H4220   1.083       .  S
C4214      C4215   1.406       .  A
C4215      C4216   1.405       .  A
C4215      F4222   1.355       .  S
C4216      C4217   1.405       .  A
C4216      H4221   1.083       .  S
C4217      C4218   1.410       .  A
C4218      F4219   1.358       .  S
C4223      C4224   1.403       .  A
C4223      C4228   1.390       .  A
C4223      H4230   1.083       .  S
C4224      C4225   1.404       .  A
C4225      C4226   1.391       .  A
C4225      F4232   1.356       .  S
C4226      C4227   1.400       .  A
C4226      H4231   1.083       .  S
C4227      C4228   1.402       .  A
C4228      F4229   1.358       .  S
C4233      C4234   1.389       .  A
C4233      C4238   1.385       .  A
C4233      H4240   1.074       .  S
C4234      C4235   1.404       .  A
C4235      C4236   1.393       .  A
C4235      F4242   1.357       .  S
C4236      C4237   1.397       .  A
C4236      H4241   1.084       .  S
C4237      C4238   1.403       .  A
C4238      F4239   1.357       .  S
C4243      C4244   1.405       .  A
C4243      C4248   1.404       .  A
C4243      H4250   1.083       .  S
C4244      C4245   1.413       .  A
C4245      C4246   1.414   1_655  A
C4245      F4252   1.357       .  S
C4246      C4247   1.410       .  A
C4246      H4251   1.083       .  S
C4247      C4248   1.417   1_455  A
C4248      F4249   1.357   1_655  S
C4253      C4254   1.402       .  A
C4253      C4258   1.400       .  A
C4253      H4260   1.081       .  S
C4254      C4255   1.404       .  A
C4255      C4256   1.403       .  A
C4255      F4262   1.356       .  S
C4256      C4257   1.408       .  A
C4256      H4261   1.084       .  S
C4257      C4258   1.405       .  A
C4258      F4259   1.354       .  S
C4263      C4264   1.400       .  A
C4263      C4268   1.398       .  A
C4263      H4270   1.083   1_655  S
C4264      C4265   1.403       .  A
C4265      C4266   1.398       .  A
C4265      F4272   1.355       .  S
C4266      C4267   1.402       .  A
C4266      H4271   1.082       .  S
C4267      C4268   1.409       .  A
C4268      F4269   1.358   1_655  S
C4273      C4274   1.396       .  A
C4273      C4278   1.385       .  A
C4273      H4280   1.084       .  S
C4274      C4275   1.407       .  A
C4275      C4276   1.395       .  A
C4275      F4282   1.358       .  S
C4276      C4277   1.397       .  A
C4276      H4281   1.084       .  S
C4277      C4278   1.401       .  A
C4278      F4279   1.357       .  S
C4283      C4284   1.415       .  A
C4283      C4288   1.428       .  A
C4283      H4290   1.082       .  S
C4284      C4285   1.422       .  A
C4285      C4286   1.384       .  A
C4285      F4292   1.359       .  S
C4286      C4287   1.398       .  A
C4286      H4291   1.085       .  S
C4287      C4288   1.416       .  A
C4288      F4289   1.356       .  S
C4293      C4294   1.413       .  A
C4293      C4298   1.421       .  A
C4293      H4300   1.083       .  S
C4294      C4295   1.407       .  A
C4295      C4296   1.399       .  A
C4295      F4302   1.358       .  S
C4296      C4297   1.409       .  A
C4296      H4301   1.084       .  S
C4297      C4298   1.412       .  A
C4298      F4299   1.357       .  S
C4303      C4304   1.404       .  A
C4303      C4308   1.402       .  A
C4303      H4310   1.084       .  S
C4304      C4305   1.401       .  A
C4305      C4306   1.394       .  A
C4305      F4312   1.357       .  S
C4306      C4307   1.404       .  A
C4306      H4311   1.082       .  S
C4307      C4308   1.405       .  A
C4308      F4309   1.356       .  S
C4313      C4314   1.404       .  A
C4313      C4318   1.390       .  A
C4313      H4320   1.083       .  S
C4314      C4315   1.404       .  A
C4315      C4316   1.392       .  A
C4315      F4322   1.358       .  S
C4316      C4317   1.401       .  A
C4316      H4321   1.084       .  S
C4317      C4318   1.399       .  A
C4318      F4319   1.357       .  S
C4323      C4324   1.405       .  A
C4323      C4328   1.397       .  A
C4323      H4330   1.084       .  S
C4324      C4325   1.390       .  A
C4325      C4326   1.377       .  A
C4325      F4332   1.358       .  S
C4326      C4327   1.399       .  A
C4326      H4331   1.077       .  S
C4327      C4328   1.398       .  A
C4328      F4329   1.357       .  S
C4333      C4334   1.405       .  A
C4333      C4338   1.401       .  A
C4333      H4340   1.084       .  S
C4334      C4335   1.415       .  A
C4335      C4336   1.423       .  A
C4335      F4342   1.357       .  S
C4336      C4337   1.413       .  A
C4336      H4341   1.083       .  S
C4337      C4338   1.413       .  A
C4338      F4339   1.358       .  S
C4343      C4344   1.398       .  A
C4343      C4348   1.377       .  A
C4343      H4350   1.084       .  S
C4344      C4345   1.398       .  A
C4345      C4346   1.398       .  A
C4345      F4352   1.357       .  S
C4346      C4347   1.409       .  A
C4346      H4351   1.083       .  S
C4347      C4348   1.401       .  A
C4348      F4349   1.358       .  S
C4353      C4354   1.398       .  A
C4353      C4358   1.385       .  A
C4353      H4360   1.079       .  S
C4354      C4355   1.402       .  A
C4355      C4356   1.398       .  A
C4355      F4362   1.351       .  S
C4356      C4357   1.403       .  A
C4356      H4361   1.083       .  S
C4357      C4358   1.402       .  A
C4358      F4359   1.359       .  S
C4363      C4364   1.413       .  A
C4363      C4368   1.409       .  A
C4363      H4370   1.073       .  S
C4364      C4365   1.398       .  A
C4365      C4366   1.413       .  A
C4365      F4372   1.355       .  S
C4366      C4367   1.415       .  A
C4366      H4371   1.078       .  S
C4367      C4368   1.399       .  A
C4368      F4369   1.357       .  S
C4373      C4374   1.397       .  A
C4373      C4378   1.410       .  A
C4373      H4380   1.083       .  S
C4374      C4375   1.421       .  A
C4375      C4376   1.413       .  A
C4375      F4382   1.358       .  S
C4376      C4377   1.402       .  A
C4376      H4381   1.083       .  S
C4377      C4378   1.426       .  A
C4378      F4379   1.357       .  S
C4383      C4384   1.405       .  A
C4383      C4388   1.403       .  A
C4383      H4390   1.083       .  S
C4384      C4385   1.402       .  A
C4385      C4386   1.396       .  A
C4385      F4392   1.358       .  S
C4386      C4387   1.406       .  A
C4386      H4391   1.081       .  S
C4387      C4388   1.405       .  A
C4388      F4389   1.357       .  S
C4393      C4394   1.396       .  A
C4393      C4398   1.391       .  A
C4393      H4400   1.082       .  S
C4394      C4395   1.400       .  A
C4395      C4396   1.385       .  A
C4395      F4402   1.358       .  S
C4396      C4397   1.397       .  A
C4396      H4401   1.084       .  S
C4397      C4398   1.404       .  A
C4398      F4399   1.358       .  S
C4403      C4404   1.401       .  A
C4403      C4408   1.395       .  A
C4403      H4410   1.083       .  S
C4404      C4405   1.402       .  A
C4405      C4406   1.377       .  A
C4405      F4412   1.358       .  S
C4406      C4407   1.395       .  A
C4406      H4411   1.084       .  S
C4407      C4408   1.404       .  A
C4408      F4409   1.358       .  S
C4413      C4414   1.420       .  A
C4413      C4418   1.413       .  A
C4413      H4420   1.084       .  S
C4414      C4415   1.401       .  A
C4415      C4416   1.411       .  A
C4415      F4422   1.357       .  S
C4416      C4417   1.420       .  A
C4416      H4421   1.084       .  S
C4417      C4418   1.402       .  A
C4418      F4419   1.357       .  S
C4423      C4424   1.404       .  A
C4423      C4428   1.402       .  A
C4423      H4430   1.084       .  S
C4424      C4425   1.403       .  A
C4425      C4426   1.399       .  A
C4425      F4432   1.357       .  S
C4426      C4427   1.405       .  A
C4426      H4431   1.083       .  S
C4427      C4428   1.406       .  A
C4428      F4429   1.358       .  S
C4433      C4434   1.402       .  A
C4433      C4438   1.389       .  A
C4433      H4440   1.083       .  S
C4434      C4435   1.403       .  A
C4435      C4436   1.385       .  A
C4435      F4442   1.358       .  S
C4436      C4437   1.399       .  A
C4436      H4441   1.084       .  S
C4437      C4438   1.399       .  A
C4438      F4439   1.358       .  S
C4443      C4444   1.391       .  A
C4443      C4448   1.377       .  A
C4443      H4450   1.085       .  S
C4444      C4445   1.408       .  A
C4445      C4446   1.402       .  A
C4445      F4452   1.357       .  S
C4446      C4447   1.401       .  A
C4446      H4451   1.083       .  S
C4447      C4448   1.406       .  A
C4448      F4449   1.354       .  S
C4453      C4454   1.412       .  A
C4453      C4458   1.414       .  A
C4453      H4460   1.083       .  S
C4454      C4455   1.414       .  A
C4455      C4456   1.409       .  A
C4455      F4462   1.357       .  S
C4456      C4457   1.410       .  A
C4456      H4461   1.082       .  S
C4457      C4458   1.415       .  A
C4458      F4459   1.357       .  S
C4463      C4464   1.398       .  A
C4463      C4468   1.410       .  A
C4463      H4470   1.083       .  S
C4464      C4465   1.420       .  A
C4465      C4466   1.411       .  A
C4465      F4472   1.357       .  S
C4466      C4467   1.401       .  A
C4466      H4471   1.083       .  S
C4467      C4468   1.424       .  A
C4468      F4469   1.358       .  S
C4473      C4474   1.403       .  A
C4473      C4478   1.403       .  A
C4473      H4480   1.083       .  S
C4474      C4475   1.403       .  A
C4475      C4476   1.395       .  A
C4475      F4482   1.358       .  S
C4476      C4477   1.405       .  A
C4476      H4481   1.084       .  S
C4477      C4478   1.407       .  A
C4478      F4479   1.356       .  S
C4483      C4484   1.400       .  A
C4483      C4488   1.387       .  A
C4483      H4490   1.083       .  S
C4484      C4485   1.396       .  A
C4485      C4486   1.390       .  A
C4485      F4492   1.357       .  S
C4486      C4487   1.402       .  A
C4486      H4491   1.084       .  S
C4487      C4488   1.397       .  A
C4488      F4489   1.358       .  S
C4493      C4494   1.396       .  A
C4493      C4498   1.380       .  A
C4493      H4500   1.083       .  S
C4494      C4495   1.396       .  A
C4495      C4496   1.395       .  A
C4495      F4502   1.356       .  S
C4496      C4497   1.409       .  A
C4496      H4501   1.083       .  S
C4497      C4498   1.404       .  A
C4498      F4499   1.358       .  S
C4503      C4504   1.411       .  A
C4503      C4508   1.399       .  A
C4503      H4510   1.084       .  S
C4504      C4505   1.413       .  A
C4505      C4506   1.422       .  A
C4505      F4512   1.357       .  S
C4506      C4507   1.414       .  A
C4506      H4511   1.083       .  S
C4507      C4508   1.405       .  A
C4508      F4509   1.358       .  S
C4513      C4514   1.402       .  A
C4513      C4518   1.400       .  A
C4513      H4520   1.084       .  S
C4514      C4515   1.408       .  A
C4515      C4516   1.407       .  A
C4515      F4522   1.357       .  S
C4516      C4517   1.405       .  A
C4516      H4521   1.083       .  S
C4517      C4518   1.408       .  A
C4518      F4519   1.358       .  S
C4523      C4524   1.398       .  A
C4523      C4528   1.390       .  A
C4523      H4530   1.084       .  S
C4524      C4525   1.404       .  A
C4525      C4526   1.384       .  A
C4525      F4532   1.355       .  S
C4526      C4527   1.395       .  A
C4526      H4531   1.080       .  S
C4527      C4528   1.407       .  A
C4528      F4529   1.357       .  S
C4533      C4534   1.404       .  A
C4533      C4538   1.395       .  A
C4533      H4540   1.084       .  S
C4534      C4535   1.407       .  A
C4535      C4536   1.403       .  A
C4535      F4542   1.357       .  S
C4536      C4537   1.403       .  A
C4536      H4541   1.083       .  S
C4537      C4538   1.402       .  A
C4538      F4539   1.358       .  S
C4543      C4544   1.397       .  A
C4543      C4548   1.384       .  A
C4543      H4550   1.078       .  S
C4544      C4545   1.400       .  A
C4545      C4546   1.397       .  A
C4545      F4552   1.356       .  S
C4546      C4547   1.404       .  A
C4546      H4551   1.084       .  S
C4547      C4548   1.398       .  A
C4548      F4549   1.358       .  S
C4553      C4554   1.406       .  A
C4553      C4558   1.403       .  A
C4553      H4560   1.082       .  S
C4554      C4555   1.416       .  A
C4555      C4556   1.418       .  A
C4555      F4562   1.357       .  S
C4556      C4557   1.412       .  A
C4556      H4561   1.083       .  S
C4557      C4558   1.415       .  A
C4558      F4559   1.357       .  S
C4563      C4564   1.414       .  A
C4563      C4568   1.407   1_455  A
C4563      H4570   1.083       .  S
C4564      C4565   1.412   1_455  A
C4565      C4566   1.415       .  A
C4565      F4572   1.357       .  S
C4566      C4567   1.413       .  A
C4566      H4571   1.083       .  S
C4567      C4568   1.407       .  A
C4568      F4569   1.357       .  S
C4573      C4574   1.404       .  A
C4573      C4578   1.397       .  A
C4573      H4580   1.083       .  S
C4574      C4575   1.408       .  A
C4575      C4576   1.398       .  A
C4575      F4582   1.358       .  S
C4576      C4577   1.401       .  A
C4576      H4581   1.084       .  S
C4577      C4578   1.402       .  A
C4578      F4579   1.356       .  S
C4583      C4584   1.397       .  A
C4583      C4588   1.389       .  A
C4583      H4590   1.084       .  S
C4584      C4585   1.400       .  A
C4585      C4586   1.388       .  A
C4585      F4592   1.355       .  S
C4586      C4587   1.401       .  A
C4586      H4591   1.084       .  S
C4587      C4588   1.408       .  A
C4588      F4589   1.357       .  S
C4593      C4594   1.400       .  A
C4593      C4598   1.377       .  A
C4593      H4600   1.082       .  S
C4594      C4595   1.398       .  A
C4595      C4596   1.398       .  A
C4595      F4602   1.357       .  S
C4596      C4597   1.406       .  A
C4596      H4601   1.083       .  S
C4597      C4598   1.394       .  A
C4598      F4599   1.357       .  S
C4603      C4604   1.409       .  A
C4603      C4608   1.401       .  A
C4603      H4610   1.084       .  S
C4604      C4605   1.407       .  A
C4605      C4606   1.409       .  A
C4605      F4612   1.356       .  S
C4606      C4607   1.407       .  A
C4606      H4611   1.082       .  S
C4607      C4608   1.402       .  A
C4608      F4609   1.357       .  S
C4613      C4614   1.413       .  A
C4613      C4618   1.417   1_556  A
C4613      H4620   1.084       .  S
C4614      C4615   1.404       .  A
C4615      C4616   1.408       .  A
C4615      F4622   1.357       .  S
C4616      C4617   1.414   1_556  A
C4616      H4621   1.083   1_556  S
C4617      C4618   1.410       .  A
C4618      F4619   1.357       .  S
C4623      C4624   1.404       .  A
C4623      C4628   1.404       .  A
C4623      H4630   1.083       .  S
C4624      C4625   1.401       .  A
C4625      C4626   1.396       .  A
C4625      F4632   1.358       .  S
C4626      C4627   1.407       .  A
C4626      H4631   1.084       .  S
C4627      C4628   1.406       .  A
C4628      F4629   1.356       .  S
C4633      C4634   1.406       .  A
C4633      C4638   1.394   1_556  A
C4633      H4640   1.084   1_556  S
C4634      C4635   1.406       .  A
C4635      C4636   1.407       .  A
C4635      F4642   1.357       .  S
C4636      C4637   1.406       .  A
C4636      H4641   1.083       .  S
C4637      C4638   1.403   1_556  A
C4638      F4639   1.356       .  S
C4643      C4644   1.406       .  A
C4643      C4648   1.396       .  A
C4643      H4650   1.084       .  S
C4644      C4645   1.395       .  A
C4645      C4646   1.383       .  A
C4645      F4652   1.358       .  S
C4646      C4647   1.402       .  A
C4646      H4651   1.082       .  S
C4647      C4648   1.397       .  A
C4648      F4649   1.357       .  S
C4653      C4654   1.417       .  A
C4653      C4658   1.434       .  A
C4653      H4660   1.082       .  S
C4654      C4655   1.424       .  A
C4655      C4656   1.392       .  A
C4655      F4662   1.357       .  S
C4656      C4657   1.400       .  A
C4656      H4661   1.085       .  S
C4657      C4658   1.420       .  A
C4658      F4659   1.355       .  S
C4663      C4664   1.398       .  A
C4663      C4668   1.409       .  A
C4663      H4670   1.083       .  S
C4664      C4665   1.421       .  A
C4665      C4666   1.411       .  A
C4665      F4672   1.357       .  S
C4666      C4667   1.400       .  A
C4666      H4671   1.083       .  S
C4667      C4668   1.423       .  A
C4668      F4669   1.357       .  S
C4673      C4674   1.407       .  A
C4673      C4678   1.397       .  A
C4673      H4680   1.084       .  S
C4674      C4675   1.406       .  A
C4675      C4676   1.406       .  A
C4675      F4682   1.357       .  S
C4676      C4677   1.406       .  A
C4676      H4681   1.083       .  S
C4677      C4678   1.402       .  A
C4678      F4679   1.358       .  S
C4683      C4684   1.395       .  A
C4683      C4688   1.383       .  A
C4683      H4690   1.084       .  S
C4684      C4685   1.402       .  A
C4685      C4686   1.389       .  A
C4685      F4692   1.358       .  S
C4686      C4687   1.401       .  A
C4686      H4691   1.084       .  S
C4687      C4688   1.407       .  A
C4688      F4689   1.358       .  S
C4693      C4694   1.394       .  A
C4693      C4698   1.382       .  A
C4693      H4700   1.084       .  S
C4694      C4695   1.404       .  A
C4695      C4696   1.396       .  A
C4695      F4702   1.357       .  S
C4696      C4697   1.398       .  A
C4696      H4701   1.083       .  S
C4697      C4698   1.402       .  A
C4698      F4699   1.357       .  S
C4703      C4704   1.401       .  A
C4703      C4708   1.399       .  A
C4703      H4710   1.084       .  S
C4704      C4705   1.410       .  A
C4705      C4706   1.398       .  A
C4705      F4712   1.352       .  S
C4706      C4707   1.398       .  A
C4706      H4711   1.084       .  S
C4707      C4708   1.406       .  A
C4708      F4709   1.356       .  S
C4713      C4714   1.397       .  A
C4713      C4718   1.404       .  A
C4713      H4720   1.083       .  S
C4714      C4715   1.422   1_554  A
C4715      C4716   1.404       .  A
C4715      F4722   1.358       .  S
C4716      C4717   1.395       .  A
C4716      H4721   1.083       .  S
C4717      C4718   1.417   1_556  A
C4718      F4719   1.356       .  S
C4723      C4724   1.399   1_545  A
C4723      C4728   1.396       .  A
C4723      H4730   1.084       .  S
C4724      C4725   1.408       .  A
C4725      C4726   1.396       .  A
C4725      F4732   1.351       .  S
C4726      C4727   1.396   1_565  A
C4726      H4731   1.084       .  S
C4727      C4728   1.405       .  A
C4728      F4729   1.356       .  S
C4733      C4734   1.392       .  A
C4733      C4738   1.378       .  A
C4733      H4740   1.084       .  S
C4734      C4735   1.406       .  A
C4735      C4736   1.398       .  A
C4735      F4742   1.358       .  S
C4736      C4737   1.399       .  A
C4736      H4741   1.083       .  S
C4737      C4738   1.403       .  A
C4738      F4739   1.355       .  S
C4743      C4744   1.407       .  A
C4743      C4748   1.391       .  A
C4743      H4750   1.083       .  S
C4744      C4745   1.407       .  A
C4745      C4746   1.384       .  A
C4745      F4752   1.358       .  S
C4746      C4747   1.396       .  A
C4746      H4751   1.085       .  S
C4747      C4748   1.397       .  A
C4748      F4749   1.355       .  S
C4753      C4754   1.401       .  A
C4753      C4758   1.397   1_556  A
C4753      H4760   1.084   1_556  S
C4754      C4755   1.406       .  A
C4755      C4756   1.404       .  A
C4755      F4762   1.357       .  S
C4756      C4757   1.405   1_556  A
C4756      H4761   1.083       .  S
C4757      C4758   1.408       .  A
C4758      F4759   1.356       .  S
C4763      C4764   1.394       .  A
C4763      C4768   1.407       .  A
C4763      H4770   1.083       .  S
C4764      C4765   1.414       .  A
C4765      C4766   1.409       .  A
C4765      F4772   1.342       .  S
C4766      C4767   1.396       .  A
C4766      H4771   1.083       .  S
C4767      C4768   1.414       .  A
C4768      F4769   1.342       .  S
C4773      C4774   1.418       .  A
C4773      C4778   1.413   1_565  A
C4773      H4780   1.084       .  S
C4774      C4775   1.400       .  A
C4775      C4776   1.409       .  A
C4775      F4782   1.357       .  S
C4776      C4777   1.420   1_565  A
C4776      H4781   1.083       .  S
C4777      C4778   1.403       .  A
C4778      F4779   1.356       .  S
C4783      C4784   1.404       .  A
C4783      C4788   1.404       .  A
C4783      H4790   1.083       .  S
C4784      C4785   1.408   1_455  A
C4785      C4786   1.399   1_655  A
C4785      F4792   1.358       .  S
C4786      C4787   1.401       .  A
C4786      H4791   1.084   1_455  S
C4787      C4788   1.407       .  A
C4788      F4789   1.357       .  S
C4793      C4794   1.408       .  A
C4793      C4798   1.396       .  A
C4793      H4800   1.083       .  S
C4794      C4795   1.392       .  A
C4795      C4796   1.376       .  A
C4795      F4802   1.359       .  S
C4796      C4797   1.401       .  A
C4796      H4801   1.078       .  S
C4797      C4798   1.396       .  A
C4798      F4799   1.357       .  S
C4803      C4804   1.397       .  A
C4803      C4808   1.392       .  A
C4803      H4810   1.084       .  S
C4804      C4805   1.403       .  A
C4805      C4806   1.387       .  A
C4805      F4812   1.359   1_545  S
C4806      C4807   1.399       .  A
C4806      H4811   1.084       .  S
C4807      C4808   1.408       .  A
C4808      F4809   1.357       .  S
C4813      C4814   1.402       .  A
C4813      C4818   1.402       .  A
C4813      H4820   1.084       .  S
C4814      C4815   1.407       .  A
C4815      C4816   1.403       .  A
C4815      F4822   1.357       .  S
C4816      C4817   1.404       .  A
C4816      H4821   1.083       .  S
C4817      C4818   1.409       .  A
C4818      F4819   1.358   1_565  S
C4823      C4824   1.402       .  A
C4823      C4828   1.413       .  A
C4823      H4830   1.083       .  S
C4824      C4825   1.424       .  A
C4825      C4826   1.411       .  A
C4825      F4832   1.357       .  S
C4826      C4827   1.399       .  A
C4826      H4831   1.083       .  S
C4827      C4828   1.421       .  A
C4828      F4829   1.357       .  S
C4833      C4834   1.406       .  A
C4833      C4838   1.404       .  A
C4833      H4840   1.084       .  S
C4834      C4835   1.403       .  A
C4835      C4836   1.398       .  A
C4835      F4842   1.358       .  S
C4836      C4837   1.405       .  A
C4836      H4841   1.083       .  S
C4837      C4838   1.406       .  A
C4838      F4839   1.357       .  S
C4843      C4844   1.398       .  A
C4843      C4848   1.391       .  A
C4843      H4850   1.084       .  S
C4844      C4845   1.399       .  A
C4845      C4846   1.383       .  A
C4845      F4852   1.358       .  S
C4846      C4847   1.401       .  A
C4846      H4851   1.083       .  S
C4847      C4848   1.406       .  A
C4848      F4849   1.355       .  S
C4853      C4854   1.405       .  A
C4853      C4858   1.399       .  A
C4853      H4860   1.083       .  S
C4854      C4855   1.395       .  A
C4855      C4856   1.377       .  A
C4855      F4862   1.358       .  S
C4856      C4857   1.400       .  A
C4856      H4861   1.082       .  S
C4857      C4858   1.400       .  A
C4858      F4859   1.357       .  S
C4863      C4864   1.403       .  A
C4863      C4868   1.404       .  A
C4863      H4870   1.083       .  S
C4864      C4865   1.408       .  A
C4865      C4866   1.399       .  A
C4865      F4872   1.357       .  S
C4866      C4867   1.401       .  A
C4866      H4871   1.084       .  S
C4867      C4868   1.407       .  A
C4868      F4869   1.356       .  S
C4873      C4874   1.414       .  A
C4873      C4878   1.419       .  A
C4873      H4880   1.083       .  S
C4874      C4875   1.415       .  A
C4875      C4876   1.410       .  A
C4875      F4882   1.357       .  S
C4876      C4877   1.412       .  A
C4876      H4881   1.083       .  S
C4877      C4878   1.416       .  A
C4878      F4879   1.357       .  S
C4883      C4884   1.408       .  A
C4883      C4888   1.397       .  A
C4883      H4890   1.084       .  S
C4884      C4885   1.413       .  A
C4885      C4886   1.421       .  A
C4885      F4892   1.357       .  S
C4886      C4887   1.413       .  A
C4886      H4891   1.083       .  S
C4887      C4888   1.408       .  A
C4888      F4889   1.358       .  S
C4893      C4894   1.404       .  A
C4893      C4898   1.401       .  A
C4893      H4900   1.084       .  S
C4894      C4895   1.403       .  A
C4895      C4896   1.404       .  A
C4895      F4902   1.357       .  S
C4896      C4897   1.407       .  A
C4896      H4901   1.084       .  S
C4897      C4898   1.406       .  A
C4898      F4899   1.357       .  S
C4903      C4904   1.397       .  A
C4903      C4908   1.384       .  A
C4903      H4910   1.084       .  S
C4904      C4905   1.403       .  A
C4905      C4906   1.390       .  A
C4905      F4912   1.358       .  S
C4906      C4907   1.400       .  A
C4906      H4911   1.084       .  S
C4907      C4908   1.404       .  A
C4908      F4909   1.358       .  S
C4913      C4914   1.403       .  A
C4913      C4918   1.396       .  A
C4913      H4920   1.084       .  S
C4914      C4915   1.396       .  A
C4915      C4916   1.382       .  A
C4915      F4922   1.352       .  S
C4916      C4917   1.397       .  A
C4916      H4921   1.085       .  S
C4917      C4918   1.400       .  A
C4918      F4919   1.358       .  S
C4923      C4924   1.406       .  A
C4923      C4928   1.406       .  A
C4923      H4930   1.083       .  S
C4924      C4925   1.399       .  A
C4925      C4926   1.390       .  A
C4925      F4932   1.359       .  S
C4926      C4927   1.405       .  A
C4926      H4931   1.076       .  S
C4927      C4928   1.406       .  A
C4928      F4929   1.357       .  S
C4933      C4934   1.417   1_455  A
C4933      C4938   1.410       .  A
C4933      H4940   1.084       .  S
C4934      C4935   1.401       .  A
C4935      C4936   1.411       .  A
C4935      F4942   1.357       .  S
C4936      C4937   1.420   1_655  A
C4936      H4941   1.083       .  S
C4937      C4938   1.403       .  A
C4938      F4939   1.357       .  S
C4943      C4944   1.405       .  A
C4943      C4948   1.402       .  A
C4943      H4950   1.083       .  S
C4944      C4945   1.408   1_554  A
C4945      C4946   1.395   1_556  A
C4945      F4952   1.356       .  S
C4946      C4947   1.400       .  A
C4946      H4951   1.084   1_554  S
C4947      C4948   1.404       .  A
C4948      F4949   1.357       .  S
C4953      C4954   1.402       .  A
C4953      C4958   1.396       .  A
C4953      H4960   1.080       .  S
C4954      C4955   1.398       .  A
C4955      C4956   1.384       .  A
C4955      F4962   1.357   1_655  S
C4956      C4957   1.402       .  A
C4956      H4961   1.085   1_655  S
C4957      C4958   1.403       .  A
C4958      F4959   1.357       .  S
C4963      C4964   1.404       .  A
C4963      C4968   1.377       .  A
C4963      H4970   1.084       .  S
C4964      C4965   1.404       .  A
C4965      C4966   1.398       .  A
C4965      F4972   1.357       .  S
C4966      C4967   1.402       .  A
C4966      H4971   1.084       .  S
C4967      C4968   1.394       .  A
C4968      F4969   1.359       .  S
C4973      C4974   1.401       .  A
C4973      C4978   1.399   1_655  A
C4973      H4980   1.084   1_655  S
C4974      C4975   1.406       .  A
C4975      C4976   1.402       .  A
C4975      F4982   1.357       .  S
C4976      C4977   1.403       .  A
C4976      H4981   1.084       .  S
C4977      C4978   1.408   1_655  A
C4978      F4979   1.358       .  S
C4983      C4984   1.399       .  A
C4983      C4988   1.412       .  A
C4983      H4990   1.083       .  S
C4984      C4985   1.417       .  A
C4985      C4986   1.409       .  A
C4985      F4992   1.344       .  S
C4986      C4987   1.395       .  A
C4986      H4991   1.083       .  S
C4987      C4988   1.412       .  A
C4988      F4989   1.343       .  S
