geometry optimzed in LAMMPS
_audit_creation_date              2020-11-30 
_audit_creation_method            'lammps2cif' 
_symmetry_space_group_name_H-M    'P1' 
_symmetry_Int_Tables_number       1 
_symmetry_cell_setting            triclinic 
loop_ 
_symmetry_equiv_pos_as_xyz 
  x,y,z 
_cell_length_a                    30.04827067 
_cell_length_b                    28.108086036879687 
_cell_length_c                    28.577775643346847 
_cell_angle_alpha                 91.35831275227893 
_cell_angle_beta                  90.89679945417232 
_cell_angle_gamma                 90.02509878986699 
loop_ 
_atom_site_label 
_atom_site_type_symbol 
_atom_site_fract_x 
_atom_site_fract_y 
_atom_site_fract_z 
_atom_site_charge 
O1          O  0.67847484  0.78595104  0.64730770    -0.80700
O2          O  0.84342443  0.72088421  0.77418314    -0.65400
O3          O  0.73482264  0.72719184  0.70060471    -1.12000
C4          C  0.68562673  0.80960592  0.83506118     1.06200
O5          O  0.80592290  0.69823623  0.83558303    -0.78600
O6          O  0.71845393  0.70208832  0.84528536    -0.66200
Ni7        Ni  0.73660295  0.75849677  0.64267111     1.34900
C8          C  0.69367416  0.68161125  0.81467545     0.84900
O9          O  0.81721235  0.68775566  0.68860445    -0.79200
O10         O  0.79453165  0.73320445  0.62944431    -0.89400
C11         C  0.84210776  0.70093461  0.81371861     0.84500
O12         O  0.75991844  0.81476697  0.67143272    -0.67600
O13         O  0.72223768  0.79829571  0.85493195    -0.86900
C14         C  0.79918830  0.81787430  0.68756552     0.85300
C15         C  0.81706563  0.69892488  0.64586770     1.06900
H16         H  0.76912969  0.79588025  0.77722731     0.38700
O17         O  0.75905499  0.76330662  0.77924403    -1.09600
O18         O  0.68606923  0.69879599  0.77416490    -0.66200
Ni19       Ni  0.70236624  0.75986021  0.74774008     1.26300
O20         O  0.81705681  0.78368959  0.70987909    -0.66500
O21         O  0.67188004  0.79333431  0.79567626    -0.78800
C22         C  0.64438437  0.78006769  0.67209331     0.84700
O23         O  0.64730707  0.75992984  0.71167208    -0.65900
Ni24       Ni  0.76374713  0.74900431  0.84327494     1.27400
Ni25       Ni  0.79027106  0.72578712  0.73537682     1.26100
H26         H  0.72368229  0.69547156  0.69557785     0.39200
C27         C  0.88696254  0.38674169  0.49031164    -0.02300
C28         C  0.08541944  0.38114697  0.50788328    -0.02300
C29         C  0.89893576  0.59811520  0.49048271    -0.02300
C30         C  0.09732957  0.59270207  0.48391488    -0.02300
C31         C  0.41839041  0.49932316  0.88753711    -0.02300
C32         C  0.41290880  0.49412981  0.09975471    -0.02300
C33         C  0.61846090  0.50605523  0.89465060    -0.02300
C34         C  0.60987194  0.51745757  0.10927676    -0.02300
C35         C  0.47933932  0.88679870  0.38924351    -0.02300
C36         C  0.48359116  0.09905921  0.38383608    -0.02300
C37         C  0.47963838  0.87926185  0.60324829    -0.02300
C38         C  0.49844976  0.09143005  0.59909250    -0.02300
O39         O  0.31839747  0.19041696  0.66919816    -0.80700
O40         O  0.16098401  0.26577741  0.78164824    -0.65400
O41         O  0.26914037  0.26169683  0.71323531    -1.12000
C42         C  0.32937685  0.21296343  0.85736490     1.06200
O43         O  0.19763849  0.30861289  0.83527936    -0.78600
O44         O  0.28587276  0.31936970  0.84532557    -0.66200
Ni45       Ni  0.27255212  0.23470730  0.65238845     1.34900
C46         C  0.31665785  0.32775464  0.81686934     0.84900
O47         O  0.18192158  0.28877555  0.69424898    -0.79200
O48         O  0.22730024  0.27768364  0.63240955    -0.89400
C49         C  0.16132952  0.29582218  0.81560330     0.84500
O50         O  0.22913941  0.18510788  0.65594451    -0.67600
O51         O  0.29339539  0.22936970  0.87449956    -0.86900
C52         C  0.19969917  0.17371023  0.68509889     0.85300
C53         C  0.19232110  0.29412846  0.65171603     1.06900
H54         H  0.24043375  0.20354177  0.79832491     0.38700
O55         O  0.24917356  0.23645706  0.79407440    -1.09600
O56         O  0.32543400  0.29988397  0.78205610    -0.66200
Ni57       Ni  0.30459610  0.23601817  0.76222220     1.26300
O58         O  0.19357832  0.19795168  0.72311173    -0.66500
O59         O  0.33782779  0.21106551  0.81374300    -0.78800
C60         C  0.35512757  0.20110462  0.68946313     0.84700
O61         O  0.35672552  0.23013950  0.72435759    -0.65900
Ni62       Ni  0.24563664  0.26766453  0.85309656     1.27400
Ni63       Ni  0.21390686  0.26157239  0.74478476     1.26100
H64         H  0.27758083  0.29474237  0.71031171     0.39200
O65         O  0.21959693  0.85418902  0.29923791    -0.80700
O66         O  0.32751118  0.69956893  0.19084532    -0.65400
O67         O  0.23722622  0.79144692  0.22568783    -1.12000
C68         C  0.19564738  0.66848811  0.32737228     1.06200
O69         O  0.27054931  0.65181983  0.18182479    -0.78600
O70         O  0.18959948  0.65267357  0.21492795    -0.66200
Ni71       Ni  0.24951171  0.85588430  0.24054066     1.34900
C72         C  0.16359428  0.68722612  0.20807497     0.84900
O73         O  0.30879757  0.78954303  0.16423129    -0.79200
O74         O  0.28089485  0.86164449  0.18335180    -0.89400
C75         C  0.31143334  0.65990165  0.17558014     0.84500
O76         O  0.30279829  0.84603782  0.27443930    -0.67600
O77         O  0.22047911  0.64048980  0.30338435    -0.86900
C78         C  0.32950235  0.81177411  0.28002066     0.85300
C79         C  0.30435043  0.83410448  0.15762435     1.06900
H80         H  0.27860159  0.71118295  0.28370980     0.38700
O81         O  0.25862111  0.71133620  0.25698238    -1.09600
O82         O  0.16973785  0.72853837  0.22629053    -0.66200
Ni83       Ni  0.21143583  0.75355783  0.27271663     1.26300
O84         O  0.32673422  0.77265238  0.25654811    -0.66500
O85         O  0.18820240  0.71208779  0.31805172    -0.78800
C86         C  0.17923187  0.84242034  0.30368660     0.84700
O87         O  0.16666486  0.80094010  0.28995941    -0.65900
Ni88       Ni  0.24656022  0.64688425  0.24306662     1.27400
Ni89       Ni  0.28454312  0.74862540  0.20960553     1.26100
H90         H  0.21714903  0.79188133  0.19898341     0.39200
O91         O  0.66878098  0.32417738  0.19670090    -0.80700
O92         O  0.76206437  0.14766737  0.29191755    -0.65400
O93         O  0.70728159  0.26741835  0.26471523    -1.12000
C94         C  0.84872662  0.29623108  0.19146236     1.06200
O95         O  0.82556661  0.18496908  0.30843119    -0.78600
O96         O  0.84760979  0.27379442  0.29004699    -0.66200
Ni97       Ni  0.65212394  0.26962470  0.23239702     1.34900
C98         C  0.82077754  0.30066753  0.31170109     0.84900
O99         O  0.68164970  0.18752308  0.31382997    -0.79200
O100        O  0.62838288  0.21656952  0.26637719    -0.89400
C101        C  0.80061094  0.14883644  0.31131538     0.84500
O102        O  0.67175903  0.22932032  0.18277160    -0.67600
O103        O  0.85642017  0.25233182  0.19850486    -0.86900
C104        C  0.68743838  0.18767162  0.18582436     0.85300
C105        C  0.64083754  0.19110902  0.30070871     1.06900
H106        H  0.77446210  0.21426331  0.20661560     0.38700
O107        O  0.77855778  0.22835635  0.23749234    -1.09600
O108        O  0.78202376  0.30954515  0.29530333    -0.66200
Ni109      Ni  0.75843915  0.29215150  0.23374500     1.26300
O110        O  0.70564231  0.17230447  0.22304574    -0.66500
O111        O  0.81253532  0.31644549  0.20479199    -0.78800
C112        C  0.69596108  0.35848163  0.20402707     0.84700
O113        O  0.73217834  0.35389419  0.22745269    -0.65900
Ni114      Ni  0.83889085  0.21817345  0.25250499     1.27400
Ni115      Ni  0.73179451  0.20616277  0.27679137     1.26100
H116        H  0.70346049  0.28412292  0.29434462     0.39200
O117        O  0.80153124  0.26244838  0.65485753    -0.80700
O118        O  0.70781651  0.17046302  0.80611039    -0.65400
O119        O  0.73371629  0.25832865  0.71140443    -1.12000
C120        C  0.84622687  0.30953252  0.82406637     1.06200
O121        O  0.70629105  0.23587915  0.84904392    -0.78600
O122        O  0.74197561  0.31987780  0.84545764    -0.66200
Ni123      Ni  0.74285986  0.23837836  0.64945417     1.34900
C124        C  0.72913761  0.34660432  0.81295189     0.84900
O125        O  0.67321215  0.18304729  0.71714305    -0.79200
O126        O  0.68419996  0.21269745  0.64541983    -0.89400
C127        C  0.69815175  0.19204810  0.84436993     0.84500
O128        O  0.76636878  0.17579549  0.65559572    -0.67600
O129        O  0.82481974  0.28316591  0.85178949    -0.86900
C130        C  0.77509785  0.15063210  0.69063166     0.85300
C131        C  0.66196926  0.18774283  0.67368177     1.06900
H132        H  0.79603646  0.22003877  0.78649872     0.38700
O133        O  0.77097075  0.24146984  0.78786721    -1.09600
O134        O  0.73994402  0.33783372  0.77027283    -0.66200
Ni135      Ni  0.78238648  0.28965450  0.74493577     1.26300
O136        O  0.76256517  0.16224266  0.73183402    -0.66500
O137        O  0.83207261  0.31780536  0.78208656    -0.78800
C138        C  0.80672177  0.30706433  0.65666559     0.84700
O139        O  0.79549463  0.33011219  0.69366605    -0.65900
Ni140      Ni  0.76566497  0.25824700  0.85057860     1.27400
Ni141      Ni  0.72157114  0.21121092  0.75506464     1.26100
H142        H  0.70862609  0.27977312  0.71091572     0.39200
C143        C  0.59176194  0.89331121  0.98707905    -0.02300
C144        C  0.62692936  0.10252452  0.01037387    -0.02300
C145        C  0.39583017  0.91192142  0.99569499    -0.02300
C146        C  0.42872582  0.12307069  0.00679983    -0.02300
O147        O  0.27883787  0.63700056  0.79401921    -0.80700
O148        O  0.16018162  0.79595450  0.70252018    -0.65400
O149        O  0.25273162  0.70382464  0.72732587    -1.12000
C150        C  0.29878682  0.82547803  0.83560798     1.06200
O151        O  0.21636518  0.84414022  0.69402466    -0.78600
O152        O  0.30016834  0.84395903  0.72475063    -0.66200
Ni153      Ni  0.24146132  0.63884498  0.73868671     1.34900
C154        C  0.32582159  0.80996146  0.71346942     0.84900
O155        O  0.18080112  0.70863592  0.66620596    -0.79200
O156        O  0.20507680  0.63513862  0.68305078    -0.89400
C157        C  0.17500807  0.83654592  0.69068303     0.84500
O158        O  0.19093647  0.64695824  0.77763020    -0.67600
O159        O  0.27211362  0.85323214  0.81436028    -0.86900
C160        C  0.16142205  0.67894154  0.78207737     0.85300
C161        C  0.18496821  0.66438933  0.65657946     1.06900
H162        H  0.21372190  0.78166166  0.79256103     0.38700
O163        O  0.23223952  0.78284780  0.76518557    -1.09600
O164        O  0.31998348  0.76768615  0.72736731    -0.66200
Ni165      Ni  0.28140975  0.74154235  0.77489058     1.26300
O166        O  0.16263583  0.71818481  0.75986335    -0.66500
O167        O  0.30718877  0.78258571  0.82236411    -0.78800
C168        C  0.31826683  0.65309418  0.79826753     0.84700
O169        O  0.32764477  0.69520074  0.78601757    -0.65900
Ni170      Ni  0.24382562  0.84781385  0.75444324     1.27400
Ni171      Ni  0.20440647  0.74670477  0.71591287     1.26100
H172        H  0.27095425  0.70382881  0.69978443     0.39200
C173        C  0.88988546  0.99210024  0.62332285    -0.02300
C174        C  0.09198011  0.00881286  0.60907249    -0.02300
C175        C  0.88864201  0.99164858  0.41152659    -0.02300
C176        C  0.08821738  0.00634099  0.39603815    -0.02300
O177        O  0.81624034  0.70738005  0.17045861    -0.80700
O178        O  0.64593055  0.79281063  0.26314791    -0.65400
O179        O  0.76346426  0.77843760  0.21323902    -1.12000
C180        C  0.78666380  0.69668591  0.35520231     1.06200
O181        O  0.67844178  0.81675553  0.32865986    -0.78600
O182        O  0.76186389  0.80760740  0.35835366    -0.66200
Ni183      Ni  0.77306106  0.75375610  0.15181458     1.34900
C184        C  0.79487254  0.82074879  0.33481977     0.84900
O185        O  0.68361969  0.82093066  0.18388349    -0.79200
O186        O  0.73093619  0.79729333  0.12755082    -0.89400
C187        C  0.64335401  0.81061620  0.30436703     0.84500
O188        O  0.72911741  0.70490165  0.15085321    -0.67600
O189        O  0.74971845  0.71336121  0.36937585    -0.86900
C190        C  0.69284763  0.69960769  0.17220390     0.85300
C191        C  0.69619404  0.81896793  0.14155518     1.06900
H192        H  0.71333369  0.71480719  0.28065426     0.38700
O193        O  0.72593950  0.74639452  0.28471136    -1.09600
O194        O  0.80629534  0.80006979  0.29645219    -0.66200
Ni195      Ni  0.78547542  0.74202624  0.26399389     1.26300
O196        O  0.67947234  0.72800340  0.20436634    -0.66500
O197        O  0.80386844  0.70584912  0.31583980    -0.78800
C198        C  0.84904475  0.71317543  0.19835274     0.84700
O199        O  0.84436250  0.73455402  0.23788586    -0.65900
Ni200      Ni  0.71407033  0.76438940  0.34742949     1.27400
Ni201      Ni  0.70367734  0.78463817  0.23536231     1.26100
H202        H  0.77687013  0.80929324  0.21492178     0.39200
C203        C  0.00571314  0.61690303  0.89537711    -0.02300
C204        C  0.00237519  0.61858975  0.10856502    -0.02300
C205        C  0.01368966  0.40119581  0.90222128    -0.02300
C206        C  0.00299727  0.40126670  0.11489053    -0.02300
O207        O  0.28053661  0.36802357  0.21586725    -0.80700
O208        O  0.16325959  0.19968555  0.28194810    -0.65400
O209        O  0.25607009  0.29253527  0.27367386    -1.12000
C210        C  0.31356471  0.18468871  0.16125852     1.06200
O211        O  0.21477899  0.14385158  0.28665649    -0.78600
O212        O  0.30146147  0.15598083  0.27452853    -0.66200
Ni213      Ni  0.24457652  0.35881804  0.27082781     1.34900
C214        C  0.32963037  0.18826401  0.28484457     0.84900
O215        O  0.18109349  0.28069796  0.32742987    -0.79200
O216        O  0.20956894  0.35495750  0.32677121    -0.89400
C217        C  0.17630627  0.15949317  0.29647519     0.84500
O218        O  0.19179811  0.35711823  0.23189254    -0.67600
O219        O  0.28961929  0.15354436  0.18055630    -0.86900
C220        C  0.16335646  0.32523594  0.22031109     0.85300
C221        C  0.18585569  0.32241523  0.34464660     1.06900
H222        H  0.22034390  0.22014693  0.19840217     0.38700
O223        O  0.23796596  0.21728266  0.22663638    -1.09600
O224        O  0.32662877  0.23022757  0.26851273    -0.66200
Ni225      Ni  0.28629778  0.26130474  0.22385386     1.26300
O226        O  0.16727154  0.28187193  0.23323724    -0.66500
O227        O  0.31461749  0.22834740  0.17389250    -0.78800
C228        C  0.31915254  0.35139488  0.20724320     0.84700
O229        O  0.33042780  0.30987847  0.21931113    -0.65900
Ni230      Ni  0.25133710  0.15163244  0.23304985     1.27400
Ni231      Ni  0.20777419  0.24867483  0.27655008     1.26100
H232        H  0.27366129  0.28863181  0.30191090     0.39200
C233        C  0.04647522  0.38092527  0.14185451     0.00000
C234        C  0.04249612  0.34782348  0.17885854    -0.11900
C235        C  0.07939569  0.32834054  0.20299516     0.02300
C236        C  0.12324018  0.34107149  0.19178836    -0.00100
C237        C  0.12825395  0.37505218  0.15684933    -0.11800
C238        C  0.09140562  0.39500120  0.13266028     0.02100
H239        H  0.01030733  0.33714249  0.19111227     0.15100
H240        H  0.16156861  0.38686400  0.14872139     0.15100
C241        C  0.10163920  0.43065842  0.09899393     0.36800
C242        C  0.07083029  0.29829107  0.24213123     0.36700
N243        N  0.11047085  0.45895130  0.07194797    -0.43600
N244        N  0.06359562  0.27482412  0.27384505    -0.43600
C245        C  0.00494964  0.39268922  0.05933529     0.00000
C246        C  0.04211088  0.37257904  0.03611480    -0.11900
C247        C  0.04716890  0.37351742  0.98681422     0.02300
C248        C  0.01400326  0.39528358  0.95765043    -0.00100
C249        C  0.97699570  0.41430983  0.98154212    -0.11800
C250        C  0.96937906  0.40521065  0.02868341     0.02100
H251        H  0.06774714  0.35493403  0.05601583     0.15100
H252        H  0.94990239  0.42926615  0.96109357     0.15100
C253        C  0.92423909  0.39124772  0.03781031     0.36800
C254        C  0.08918787  0.35597955  0.96980290     0.36700
N255        N  0.88814820  0.37813515  0.04295942    -0.43600
N256        N  0.12366881  0.34260604  0.95765559    -0.43600
C257        C  0.99815403  0.45792207  0.12310196     0.00000
C258        C  0.02962639  0.48557893  0.14942642    -0.11900
C259        C  0.03011860  0.53627539  0.14948052     0.02300
C260        C  0.00140981  0.56237533  0.11851069    -0.00100
C261        C  0.96541968  0.53511113  0.10116466    -0.11800
C262        C  0.96186512  0.48559198  0.10553579     0.02100
H263        H  0.05282701  0.46810777  0.17261203     0.15100
H264        H  0.93609171  0.55304989  0.09016890     0.15100
C265        C  0.91645631  0.46905075  0.10348951     0.36800
C266        C  0.05458796  0.55880718  0.18784245     0.36700
N267        N  0.87898582  0.45944902  0.10393284    -0.43600
N268        N  0.07365118  0.57580048  0.21955166    -0.43600
C269        C  0.01384072  0.45710852  0.89646075     0.00000
C270        C  0.98582081  0.48063457  0.86421061    -0.11900
C271        C  0.98862642  0.53002513  0.85721089     0.02300
C272        C  0.00892353  0.56055265  0.89182587    -0.00100
C273        C  0.03721662  0.53712208  0.92399497    -0.11800
C274        C  0.04268995  0.48759814  0.92380746     0.02100
H275        H  0.96303498  0.46128231  0.84172067     0.15100
H276        H  0.05707063  0.55761458  0.94909789     0.15100
C277        C  0.08157894  0.47064853  0.94857787     0.36800
C278        C  0.97304465  0.54595822  0.81226419     0.36700
N279        N  0.11429134  0.45941798  0.96711977    -0.43600
N280        N  0.96012636  0.55568762  0.77536778    -0.43600
C281        C  0.00479604  0.62875019  0.95036700     0.00000
C282        C  0.96798875  0.61054356  0.97484255    -0.11900
C283        C  0.96362127  0.61452672  0.02360507     0.02300
C284        C  0.00071050  0.62687968  0.05294563    -0.00100
C285        C  0.03492981  0.65116750  0.02886260    -0.11800
C286        C  0.03657942  0.65377486  0.97927565     0.02100
H287        H  0.94057150  0.59433647  0.95555264     0.15100
H288        H  0.06006729  0.67088712  0.04852709     0.15100
C289        C  0.06975803  0.68519831  0.96131687     0.36800
C290        C  0.91839576  0.61559312  0.03996775     0.36700
N291        N  0.09671573  0.71114865  0.94863311    -0.43600
N292        N  0.88198199  0.61687911  0.05259161    -0.43600
C293        C  0.89206088  0.69272519  0.18264223     0.00000
C294        C  0.91310122  0.71401056  0.14516487    -0.11900
C295        C  0.94787925  0.69134875  0.12109347     0.02300
C296        C  0.96117243  0.64387695  0.13211465    -0.00100
C297        C  0.94069042  0.62385779  0.17168504    -0.11800
C298        C  0.90684355  0.64770952  0.19657157     0.02100
H299        H  0.90206781  0.74892574  0.13445480     0.15100
H300        H  0.95153768  0.58979698  0.18446296     0.15100
C301        C  0.88721798  0.62513479  0.23613702     0.36800
C302        C  0.97107822  0.71992152  0.08793367     0.36700
N303        N  0.87150719  0.60745247  0.26809969    -0.43600
N304        N  0.98937423  0.74401111  0.06214406    -0.43600
C305        C  0.10865956  0.05343198  0.37676408     0.00000
C306        C  0.08325427  0.08497004  0.34858488    -0.11900
C307        C  0.10342142  0.12217554  0.32406450     0.02300
C308        C  0.14965480  0.12981777  0.32840134    -0.00100
C309        C  0.17377991  0.10269658  0.36051715    -0.11800
C310        C  0.15461802  0.06495713  0.38382212     0.02100
H311        H  0.04823366  0.07853942  0.34188536     0.15100
H312        H  0.20913931  0.10941763  0.36565479     0.15100
C313        C  0.18451472  0.03880922  0.41373198     0.36800
C314        C  0.07688299  0.14786215  0.29065372     0.36700
N315        N  0.20999667  0.02023616  0.43796428    -0.43600
N316        N  0.05538097  0.16778442  0.26349973    -0.43600
C317        C  0.86760832  0.94262856  0.39446566     0.00000
C318        C  0.82056393  0.94134741  0.39164693    -0.11900
C319        C  0.79704609  0.90316751  0.37129826     0.02300
C320        C  0.81988292  0.86282294  0.35396568    -0.00100
C321        C  0.86615097  0.86084755  0.36076116    -0.11800
C322        C  0.88993835  0.89897559  0.38248825     0.02100
H323        H  0.80159894  0.97202536  0.40298456     0.15100
H324        H  0.88350957  0.82829064  0.35118834     0.15100
C325        C  0.93543168  0.88884020  0.39573558     0.36800
C326        C  0.74920093  0.90755197  0.36738173     0.36700
N327        N  0.97173346  0.87960414  0.40623846    -0.43600
N328        N  0.71094378  0.91177071  0.36467559    -0.43600
C329        C  0.93971131  0.99982886  0.40260801     0.00000
C330        C  0.96112137  0.98011435  0.36302300    -0.11900
C331        C  0.00795044  0.98166452  0.35805253     0.02300
C332        C  0.03530397  0.00730063  0.39154066    -0.00100
C333        C  0.01135273  0.03796843  0.42161779    -0.11800
C334        C  0.96607292  0.03265708  0.42997857     0.02100
H335        H  0.94164184  0.96118540  0.33654125     0.15100
H336        H  0.02731919  0.06730577  0.43944739     0.15100
C337        C  0.94957301  0.06208647  0.46804469     0.36800
C338        C  0.02480608  0.96039716  0.31547414     0.36700
N339        N  0.93815766  0.08610679  0.49905048    -0.43600
N340        N  0.03693998  0.94311019  0.28079399    -0.43600
C341        C  0.10036614  0.00615578  0.45117718     0.00000
C342        C  0.09650353  0.04931039  0.47752411    -0.11900
C343        C  0.09842969  0.05206324  0.52662377     0.02300
C344        C  0.10044653  0.00995010  0.55355233    -0.00100
C345        C  0.11866450  0.97098448  0.52752598    -0.11800
C346        C  0.12005518  0.96908898  0.47785623     0.02100
H347        H  0.09425040  0.08269365  0.45944222     0.15100
H348        H  0.13607365  0.94317989  0.54556237     0.15100
C349        C  0.15185856  0.93596762  0.45842407     0.36800
C350        C  0.10981823  0.09871298  0.54549433     0.36700
N351        N  0.17897295  0.91043837  0.44420424    -0.43600
N352        N  0.11999286  0.13641947  0.55895225    -0.43600
C353        C  0.88178030  0.99040915  0.46608547     0.00000
C354        C  0.91019366  0.96013244  0.49130570    -0.11900
C355        C  0.91055567  0.95828513  0.54007045     0.02300
C356        C  0.88527192  0.99119200  0.56772197    -0.00100
C357        C  0.85576107  0.02075881  0.54232041    -0.11800
C358        C  0.85018759  0.01626664  0.49328087     0.02100
H359        H  0.93295611  0.93724142  0.47267703     0.15100
H360        H  0.83498731  0.04652792  0.55974434     0.15100
C361        C  0.80880426  0.03382693  0.47402878     0.36800
C362        C  0.93442585  0.91883195  0.55993638     0.36700
N363        N  0.77515209  0.04752466  0.45938973    -0.43600
N364        N  0.95168702  0.88549630  0.57473111    -0.43600
C365        C  0.94214926  0.99937475  0.63070282     0.00000
C366        C  0.96138656  0.03856559  0.60820685    -0.11900
C367        C  0.00775042  0.04491863  0.60278557     0.02300
C368        C  0.03928999  0.01107890  0.62009017    -0.00100
C369        C  0.01966777  0.97655068  0.64932251    -0.11800
C370        C  0.97340449  0.96828338  0.65224214     0.02100
H371        H  0.93899992  0.06482173  0.59357565     0.15100
H372        H  0.04029246  0.95345831  0.67004745     0.15100
C373        C  0.96176259  0.92463548  0.67454899     0.36800
C374        C  0.01905638  0.08985060  0.58326456     0.36700
N375        N  0.95504860  0.88865697  0.69206469    -0.43600
N376        N  0.02286637  0.12770680  0.56874055    -0.43600
C377        C  0.11059035  0.96075528  0.63143368     0.00000
C378        C  0.13609857  0.96318320  0.67369436    -0.11900
C379        C  0.15470891  0.92309673  0.69430775     0.02300
C380        C  0.14671538  0.87714488  0.67516085    -0.00100
C381        C  0.11683635  0.87264990  0.63719409    -0.11800
C382        C  0.09795556  0.91325888  0.61614003     0.02100
H383        H  0.14202776  0.99665004  0.69209043     0.15100
H384        H  0.10938159  0.83743660  0.62281555     0.15100
C385        C  0.06599430  0.90432106  0.57867895     0.36800
C386        C  0.18253131  0.93070634  0.73557345     0.36700
N387        N  0.04191416  0.89661871  0.54743553    -0.43600
N388        N  0.20488064  0.93758762  0.76838545    -0.43600
C389        C  0.12285888  0.66751931  0.81291214     0.00000
C390        C  0.07964032  0.67317094  0.79552371    -0.11900
C391        C  0.04226848  0.65567786  0.81898022     0.02300
C392        C  0.04630758  0.63542500  0.86497674    -0.00100
C393        C  0.09080071  0.62717570  0.88003838    -0.11800
C394        C  0.12816445  0.64344886  0.85552633     0.02100
H395        H  0.07523631  0.68840597  0.76119024     0.15100
H396        H  0.09713085  0.60918849  0.91236230     0.15100
C397        C  0.17186798  0.63604166  0.87581152     0.36800
C398        C  0.00200279  0.65578696  0.79077325     0.36700
N399        N  0.20687414  0.63034439  0.89219219    -0.43600
N400        N  0.97078983  0.65719766  0.76656924    -0.43600
C401        C  0.40185692  0.13838070  0.05139422     0.00000
C402        C  0.36310768  0.11233425  0.06248667    -0.11900
C403        C  0.33400022  0.12687659  0.09695625     0.02300
C404        C  0.34273829  0.16881670  0.12311048    -0.00100
C405        C  0.38108838  0.19523590  0.11382316    -0.11800
C406        C  0.41031524  0.18103646  0.07853422     0.02100
H407        H  0.35339834  0.08028652  0.04388853     0.15100
H408        H  0.38818554  0.22762818  0.13398383     0.15100
C409        C  0.44637285  0.21343092  0.06899317     0.36800
C410        C  0.29449710  0.09823346  0.10292613     0.36700
N411        N  0.47495321  0.23971664  0.06164442    -0.43600
N412        N  0.26315218  0.07491678  0.10734421    -0.43600
C413        C  0.36909785  0.89083889  0.95263232     0.00000
C414        C  0.38940805  0.85629598  0.92265215    -0.11900
C415        C  0.36689544  0.83367438  0.88591771     0.02300
C416        C  0.32230098  0.84508774  0.87700373    -0.00100
C417        C  0.30047770  0.87739195  0.90696782    -0.11800
C418        C  0.32276458  0.89896388  0.94532341     0.02100
H419        H  0.42308894  0.84418865  0.92837135     0.15100
H420        H  0.26551264  0.88510286  0.90088856     0.15100
C421        C  0.29654974  0.92814448  0.97675812     0.36800
C422        C  0.39118459  0.79934914  0.85766644     0.36700
N423        N  0.27498084  0.95147445  0.00142526    -0.43600
N424        N  0.41073036  0.77178340  0.83538037    -0.43600
C425        C  0.41997212  0.06795186  0.99817863     0.00000
C426        C  0.44077458  0.03649759  0.02909049    -0.11900
C427        C  0.42796802  0.98946497  0.03316715     0.02300
C428        C  0.39892544  0.96749746  0.99928277    -0.00100
C429        C  0.37818684  0.99781806  0.96713236    -0.11800
C430        C  0.38447838  0.04735136  0.96972040     0.02100
H431        H  0.46549884  0.04829923  0.05358873     0.15100
H432        H  0.35554024  0.98379781  0.94062123     0.15100
C433        C  0.34876881  0.07460892  0.94895796     0.36800
C434        C  0.44552313  0.96522214  0.07365685     0.36700
N435        N  0.31929860  0.09544943  0.93282310    -0.43600
N436        N  0.45906653  0.94706434  0.10690481    -0.43600
C437        C  0.57683937  0.12233564  0.01221105     0.00000
C438        C  0.55227161  0.12071769  0.05414077    -0.11900
C439        C  0.50573888  0.12381578  0.05539695     0.02300
C440        C  0.48049447  0.13224325  0.01370479    -0.00100
C441        C  0.50578928  0.14745972  0.97594351    -0.11800
C442        C  0.55099532  0.13725654  0.97211363     0.02100
H443        H  0.56759414  0.11551036  0.08735009     0.15100
H444        H  0.49031009  0.16408054  0.94637480     0.15100
C445        C  0.56547847  0.13718375  0.92393723     0.36800
C446        C  0.48617186  0.11759016  0.10096196     0.36700
N447        N  0.57487391  0.13646999  0.88478606    -0.43600
N448        N  0.47138883  0.11215190  0.13762335    -0.43600
C449        C  0.61354583  0.86710775  0.02880107     0.00000
C450        C  0.60813619  0.88707223  0.07453298    -0.11900
C451        C  0.63546452  0.87366789  0.11190620     0.02300
C452        C  0.66708232  0.83754978  0.10468551    -0.00100
C453        C  0.66752004  0.81268527  0.06169013    -0.11800
C454        C  0.64017582  0.82538595  0.02468746     0.02100
H455        H  0.58487155  0.91613203  0.07990967     0.15100
H456        H  0.68809865  0.78114903  0.05746056     0.15100
C457        C  0.63679789  0.79022874  0.98712175     0.36800
C458        C  0.63180532  0.89910248  0.15614468     0.36700
N459        N  0.63508123  0.75988420  0.95902880    -0.43600
N460        N  0.62893378  0.91954720  0.19159491    -0.43600
C461        C  0.44566328  0.89859079  0.99128330     0.00000
C462        C  0.46870790  0.87172095  0.02482414    -0.11900
C463        C  0.51456712  0.86413433  0.02234342     0.02300
C464        C  0.54004562  0.88831950  0.98834300    -0.00100
C465        C  0.51554895  0.90832776  0.95166508    -0.11800
C466        C  0.47038550  0.91575316  0.95324177     0.02100
H467        H  0.45165903  0.85692238  0.05407301     0.15100
H468        H  0.53091187  0.91484184  0.91910576     0.15100
C469        C  0.45059176  0.94012929  0.91389208     0.36800
C470        C  0.53141855  0.82636309  0.05108455     0.36700
N471        N  0.43522083  0.95912682  0.88198567    -0.43600
N472        N  0.54378409  0.79547761  0.07400378    -0.43600
C473        C  0.62215223  0.04768959  0.00465890     0.00000
C474        C  0.59289805  0.03016792  0.96937863    -0.11900
C475        C  0.58937120  0.98213845  0.95823327     0.02300
C476        C  0.60433509  0.94813144  0.99086464    -0.00100
C477        C  0.63900774  0.96501464  0.02139520    -0.11800
C478        C  0.64944154  0.01326844  0.02681550     0.02100
H479        H  0.57801415  0.05394493  0.94501695     0.15100
H480        H  0.66190531  0.94037634  0.03743766     0.15100
C481        C  0.69249855  0.02422147  0.04776444     0.36800
C482        C  0.58609019  0.97210144  0.90842335     0.36700
N483        N  0.72729054  0.03232256  0.06400680    -0.43600
N484        N  0.58438401  0.96508079  0.86834565    -0.43600
C485        C  0.97029174  0.37599956  0.87950077     0.00000
C486        C  0.94207891  0.34824814  0.90733114    -0.11900
C487        C  0.90201461  0.32839030  0.89079794     0.02300
C488        C  0.88928189  0.33120607  0.84288885    -0.00100
C489        C  0.91955930  0.35309724  0.81307097    -0.11800
C490        C  0.95996184  0.37357419  0.83023617     0.02100
H491        H  0.95120419  0.33985443  0.94282033     0.15100
H492        H  0.91223742  0.35329264  0.77580045     0.15100
C493        C  0.99071026  0.38957223  0.79552414     0.36800
C494        C  0.87517770  0.30533084  0.92525354     0.36700
N495        N  0.01479437  0.40192144  0.76701305    -0.43600
N496        N  0.85406179  0.28710108  0.95324179    -0.43600
C497        C  0.67922661  0.16819229  0.88485248     0.00000
C498        C  0.68729081  0.11990292  0.89095593    -0.11900
C499        C  0.67376099  0.09711636  0.93137258     0.02300
C500        C  0.65032431  0.12326300  0.96712577    -0.00100
C501        C  0.64638227  0.17295054  0.96192648    -0.11800
C502        C  0.65803357  0.19476530  0.92076687     0.02100
H503        H  0.70552479  0.10005190  0.86444700     0.15100
H504        H  0.63033072  0.19423719  0.98897582     0.15100
C505        C  0.64364898  0.24341276  0.91496055     0.36800
C506        C  0.68838345  0.04841895  0.93470080     0.36700
N507        N  0.63144491  0.28204476  0.91000496    -0.43600
N508        N  0.70116034  0.00958858  0.93531687    -0.43600
C509        C  0.80217536  0.10692154  0.68171280     0.00000
C510        C  0.84747893  0.10722490  0.69365010    -0.11900
C511        C  0.87673016  0.07134369  0.67740749     0.02300
C512        C  0.86096221  0.03337008  0.64683281    -0.00100
C513        C  0.81399447  0.03127396  0.64000600    -0.11800
C514        C  0.78538677  0.06795483  0.65511591     0.02100
H515        H  0.86048123  0.13671670  0.71493112     0.15100
H516        H  0.79960848  0.00185223  0.61973949     0.15100
C517        C  0.73898265  0.06551782  0.64137659     0.36800
C518        C  0.92152372  0.07470264  0.69602089     0.36700
N519        N  0.70191903  0.06351796  0.62990812    -0.43600
N520        N  0.95700713  0.07835324  0.71207938    -0.43600
C521        C  0.88514474  0.32481206  0.17002644     0.00000
C522        C  0.91352829  0.30259026  0.13763680    -0.11900
C523        C  0.95131455  0.32573977  0.12050363     0.02300
C524        C  0.96117327  0.37402086  0.13377654    -0.00100
C525        C  0.93492709  0.39403996  0.17002224    -0.11800
C526        C  0.89700229  0.37085649  0.18701278     0.02100
H527        H  0.90692691  0.26604528  0.12658419     0.15100
H528        H  0.94405570  0.42815758  0.18575266     0.15100
C529        C  0.87276419  0.39401050  0.22438991     0.36800
C530        C  0.98100754  0.29725209  0.09219284     0.36700
N531        N  0.85354314  0.41259331  0.25446742    -0.43600
N532        N  0.00472839  0.27358987  0.07021643    -0.43600
C533        C  0.68319724  0.15666206  0.14404077     0.00000
C534        C  0.70199995  0.17170103  0.10266197    -0.11900
C535        C  0.69079052  0.14968709  0.05970851     0.02300
C536        C  0.65391956  0.11718651  0.05661745    -0.00100
C537        C  0.64245475  0.09642325  0.09964707    -0.11800
C538        C  0.65663703  0.11567067  0.14288767     0.02100
H539        H  0.72639099  0.20023035  0.10415533     0.22300
H540        H  0.62050841  0.06579887  0.09972861     0.15100
C541        C  0.64225776  0.09349790  0.18508821     0.36800
C542        C  0.72228109  0.15697611  0.02288953     0.36700
N543        N  0.63121774  0.07435107  0.21837367    -0.43600
N544        N  0.74845015  0.16298304  0.99431092    -0.43600
C545        C  0.81829198  0.10854429  0.33832717     0.00000
C546        C  0.82508704  0.06491644  0.31534942    -0.11900
C547        C  0.84967972  0.02852041  0.33649803     0.02300
C548        C  0.86501098  0.03329181  0.38428290    -0.00100
C549        C  0.86075757  0.07925934  0.40499931    -0.11800
C550        C  0.83716723  0.11590389  0.38328942     0.02100
H551        H  0.81360001  0.06036354  0.27932001     0.15100
H552        H  0.87371705  0.08678362  0.43955616     0.15100
C553        C  0.83200969  0.16080175  0.40837950     0.36800
C554        C  0.86035697  0.98841833  0.30621399     0.36700
N555        N  0.82758599  0.19676161  0.42832636    -0.43600
N556        N  0.86837676  0.95677513  0.28109313    -0.43600
C557        C  0.14880840  0.87999512  0.32310076     0.00000
C558        C  0.15454243  0.92562025  0.30607184    -0.11900
C559        C  0.13251603  0.96523934  0.32491512     0.02300
C560        C  0.10724456  0.96188332  0.36704732    -0.00100
C561        C  0.09659778  0.91449492  0.37977414    -0.11800
C562        C  0.11756407  0.87402607  0.35882820     0.02100
H563        H  0.17549909  0.93009903  0.27583055     0.15100
H564        H  0.07379820  0.90925276  0.40822018     0.15100
C565        C  0.10896891  0.82742315  0.37663465     0.36800
C566        C  0.13063202  0.00469155  0.29352932     0.36700
N567        N  0.10236295  0.78987676  0.39077083    -0.43600
N568        N  0.12930988  0.03397011  0.26573776    -0.43600
C569        C  0.37301998  0.89103117  0.03929914     0.00000
C570        C  0.35298080  0.92160964  0.07294682    -0.11900
C571        C  0.33252796  0.90439673  0.11247070     0.02300
C572        C  0.32754331  0.85486062  0.11764581    -0.00100
C573        C  0.34523174  0.82399119  0.08361211    -0.11800
C574        C  0.36793160  0.84102607  0.04531060     0.02100
H575        H  0.35290067  0.95977433  0.06924989     0.15100
H576        H  0.34156103  0.78582610  0.08690368     0.15100
C577        C  0.38625876  0.80518005  0.01408719     0.36800
C578        C  0.31880866  0.93905061  0.14759531     0.36700
N579        N  0.40091520  0.77521338  0.99050986    -0.43600
N580        N  0.30850536  0.96707449  0.17571331    -0.43600
C581        C  0.04593476  0.64133069  0.13081276     0.00000
C582        C  0.04400873  0.67752405  0.16658392    -0.11900
C583        C  0.08194497  0.69566641  0.18943277     0.02300
C584        C  0.12386639  0.67711424  0.17840242    -0.00100
C585        C  0.12714062  0.64299968  0.14193546    -0.11800
C586        C  0.08930982  0.62523629  0.11819486     0.02100
H587        H  0.01298436  0.69142770  0.17936594     0.15100
H588        H  0.15956076  0.62880680  0.13292754     0.15100
C589        C  0.09630176  0.58893464  0.08238672     0.36800
C590        C  0.07623102  0.73105505  0.22643431     0.36700
N591        N  0.10207708  0.56067183  0.05302887    -0.43600
N592        N  0.07147721  0.75950216  0.25587730    -0.43600
C593        C  0.41081881  0.15199677  0.96408428     0.00000
C594        C  0.38698129  0.19468219  0.97191886    -0.11900
C595        C  0.36398870  0.21717063  0.93671918     0.02300
C596        C  0.36269100  0.19665448  0.89141741    -0.00100
C597        C  0.39166276  0.15919045  0.88049936    -0.11800
C598        C  0.41658988  0.13739621  0.91598844     0.02100
H599        H  0.38391752  0.21134596  0.00564702     0.15100
H600        H  0.39293225  0.14512712  0.84487105     0.15100
C601        C  0.44514379  0.09827756  0.90198504     0.36800
C602        C  0.34091746  0.26089892  0.94912290     0.36700
N603        N  0.46824839  0.06730671  0.89062154    -0.43600
N604        N  0.32236467  0.29553313  0.95958034    -0.43600
C605        C  0.12072445  0.32074597  0.83089365     0.00000
C606        C  0.12068737  0.37028718  0.82920418    -0.11900
C607        C  0.08736216  0.39784302  0.85015344     0.02300
C608        C  0.05357278  0.37566972  0.87723987    -0.00100
C609        C  0.05373859  0.32499945  0.87711309    -0.11800
C610        C  0.08613614  0.29782941  0.85378324     0.02100
H611        H  0.14729468  0.38775170  0.81083435     0.15100
H612        H  0.02838025  0.30631669  0.89602897     0.15100
C613        C  0.08408418  0.24658552  0.85518849     0.36800
C614        C  0.08941934  0.44772733  0.83955960     0.36700
N615        N  0.08223513  0.20548543  0.85593222    -0.43600
N616        N  0.09249444  0.48726808  0.82957398    -0.43600
C617        C  0.11963021  0.05176912  0.63213987     0.00000
C618        C  0.10028584  0.08768626  0.66109898    -0.11900
C619        C  0.12542285  0.12675268  0.67987544     0.02300
C620        C  0.17173437  0.13032650  0.67199487    -0.00100
C621        C  0.19144922  0.09372967  0.64519323    -0.11800
C622        C  0.16672150  0.05548291  0.62559000     0.02100
H623        H  0.06521872  0.08624428  0.66877814     0.15100
H624        H  0.22688161  0.09539625  0.63862739     0.15100
C625        C  0.19147777  0.02033157  0.59897390     0.36800
C626        C  0.10216724  0.16446601  0.70428249     0.36700
N627        N  0.21202120  0.99247570  0.57809359    -0.43600
N628        N  0.08349372  0.19501410  0.72342470    -0.43600
C629        C  0.54302194  0.11418029  0.61883187     0.00000
C630        C  0.57470226  0.13381200  0.58869909    -0.11900
C631        C  0.61354764  0.15626883  0.60540777     0.02300
C632        C  0.62146394  0.16275405  0.65421267    -0.00100
C633        C  0.59015987  0.14444543  0.68475780    -0.11800
C634        C  0.55185900  0.12043543  0.66812755     0.02100
H635        H  0.56948299  0.13343816  0.55134720     0.15100
H636        H  0.59567631  0.14860743  0.72223666     0.15100
C637        C  0.52367838  0.10106262  0.70347783     0.36800
C638        C  0.64475071  0.17139413  0.57068391     0.36700
N639        N  0.50221188  0.08582694  0.73289070    -0.43600
N640        N  0.66959962  0.18320844  0.54266706    -0.43600
C641        C  0.39503756  0.17553691  0.67339446     0.00000
C642        C  0.42559012  0.19834344  0.64518429    -0.11900
C643        C  0.45873292  0.17248307  0.62150426     0.02300
C644        C  0.46120221  0.12164130  0.62449572    -0.00100
C645        C  0.43148469  0.10039072  0.65609255    -0.11800
C646        C  0.39879464  0.12640002  0.67954948     0.02100
H647        H  0.42262684  0.23639060  0.64037764     0.15100
H648        H  0.43422130  0.06351238  0.66516239     0.15100
C649        C  0.36953486  0.10167814  0.71047839     0.36800
C650        C  0.48889332  0.19965160  0.59362085     0.36700
N651        N  0.34631976  0.08171677  0.73531170    -0.43600
N652        N  0.51259145  0.22194134  0.57128101    -0.43600
C653        C  0.43615583  0.85853432  0.62768044     0.00000
C654        C  0.42707075  0.87625276  0.67345716    -0.11900
C655        C  0.39471642  0.85764636  0.70232722     0.02300
C656        C  0.36541793  0.82243902  0.68525059    -0.00100
C657        C  0.36912696  0.80785166  0.63814352    -0.11800
C658        C  0.40222205  0.82694507  0.60876909     0.02100
H659        H  0.44382276  0.90757404  0.68697329     0.15100
H660        H  0.34363213  0.78447545  0.62316922     0.15100
C661        C  0.39271395  0.82043400  0.55951772     0.36800
C662        C  0.39186493  0.87644313  0.74973167     0.36700
N663        N  0.38227012  0.81480027  0.52059177    -0.43600
N664        N  0.38994646  0.89149872  0.78767561    -0.43600
C665        C  0.49418851  0.03653951  0.60993960     0.00000
C666        C  0.45373592  0.01403910  0.59638930    -0.11900
C667        C  0.44576898  0.96531353  0.60218381     0.02300
C668        C  0.48105167  0.93441073  0.61630363    -0.00100
C669        C  0.52092406  0.95666915  0.63166173    -0.11800
C670        C  0.52781555  0.00608947  0.62924126     0.02100
H671        H  0.42756812  0.03528881  0.58071794     0.15100
H672        H  0.54910839  0.93534179  0.64213883     0.15100
C673        C  0.57230695  0.02110016  0.64226043     0.36800
C674        C  0.40331605  0.94738704  0.58504635     0.36700
N675        N  0.60852971  0.03103352  0.65282485    -0.43600
N676        N  0.36923077  0.93377465  0.57084424    -0.43600
C677        C  0.36793450  0.17401801  0.31619680     0.00000
C678        C  0.36090418  0.13901666  0.34960060    -0.11900
C679        C  0.39632369  0.11692475  0.37377694     0.02300
C680        C  0.44173454  0.12772849  0.36368059    -0.00100
C681        C  0.44750806  0.16777794  0.33436014    -0.11800
C682        C  0.41191871  0.18981039  0.31040007     0.02100
H683        H  0.32706426  0.12779597  0.35621981     0.15100
H684        H  0.48004659  0.18269105  0.32887255     0.15100
C685        C  0.42204561  0.22711281  0.27831077     0.36800
C686        C  0.38350569  0.08339368  0.40852790     0.36700
N687        N  0.43032130  0.25701626  0.25267400    -0.43600
N688        N  0.37014273  0.05813326  0.43642284    -0.43600
C689        C  0.60516780  0.16393362  0.32412471     0.00000
C690        C  0.57478698  0.13829817  0.29580028    -0.11900
C691        C  0.53758584  0.11570792  0.31426209     0.02300
C692        C  0.52750769  0.12068285  0.36291229    -0.00100
C693        C  0.55829546  0.14779637  0.39100300    -0.11800
C694        C  0.59705715  0.16786876  0.37241282     0.02100
H695        H  0.57969196  0.13670369  0.25831732     0.15100
H696        H  0.55215737  0.15502114  0.42763484     0.15100
C697        C  0.62659498  0.19488959  0.40322063     0.36800
C698        C  0.50948738  0.09004079  0.28089048     0.36700
N699        N  0.65034385  0.21643759  0.42795212    -0.43600
N700        N  0.48835557  0.06982904  0.25265671    -0.43600
C701        C  0.48672440  0.10177556  0.44039272     0.00000
C702        C  0.52075339  0.07619146  0.46392571    -0.11900
C703        C  0.52300854  0.06988931  0.51251102     0.02300
C704        C  0.49367495  0.09439285  0.54331476    -0.00100
C705        C  0.46055203  0.12212131  0.52057379    -0.11800
C706        C  0.45920814  0.12901846  0.47142800     0.02100
H707        H  0.54845073  0.06223162  0.44518508     0.15100
H708        H  0.43575649  0.14068245  0.54082295     0.15100
C709        C  0.43414311  0.16984394  0.45641966     0.36800
C710        C  0.55782153  0.03851543  0.52855582     0.36700
N711        N  0.41438360  0.20324594  0.44548189    -0.43600
N712        N  0.58621329  0.01270790  0.53859878    -0.43600
C713        C  0.52181975  0.86384526  0.36649806     0.00000
C714        C  0.55456661  0.84051837  0.39349476    -0.11900
C715        C  0.59291238  0.82133449  0.37341144     0.02300
C716        C  0.60050216  0.82559694  0.32502863    -0.00100
C717        C  0.56818732  0.84741042  0.29731310    -0.11800
C718        C  0.52951227  0.86653930  0.31711769     0.02100
H719        H  0.55206450  0.83843379  0.43093008     0.15100
H720        H  0.57377759  0.85082859  0.26011848     0.15100
C721        C  0.49848219  0.88872338  0.28519510     0.36800
C722        C  0.62385594  0.79677278  0.40363300     0.36700
N723        N  0.47409264  0.90625221  0.25902100    -0.43600
N724        N  0.64858841  0.77698041  0.42774729    -0.43600
C725        C  0.43739072  0.85933882  0.36934307     0.00000
C726        C  0.44192362  0.81638544  0.34215511    -0.11900
C727        C  0.40672085  0.79742915  0.31493046     0.02300
C728        C  0.36522463  0.82025100  0.31570578    -0.00100
C729        C  0.35809206  0.85559204  0.35041252    -0.11800
C730        C  0.39303224  0.87394423  0.37818522     0.02100
H731        H  0.47331713  0.79770826  0.34037057     0.15100
H732        H  0.32498090  0.87022196  0.35500693     0.15100
C733        C  0.38124009  0.90827149  0.41414640     0.36800
C734        C  0.41460849  0.75556184  0.28594812     0.36700
N735        N  0.36898657  0.93482595  0.44268199    -0.43600
N736        N  0.42075187  0.72169169  0.26313481    -0.43600
C737        C  0.47995476  0.87643538  0.54675980     0.00000
C738        C  0.48843451  0.91836489  0.52207923    -0.11900
C739        C  0.47828293  0.92303182  0.47539714     0.02300
C740        C  0.47803565  0.88295915  0.44452522    -0.00100
C741        C  0.47741861  0.83823922  0.46707223    -0.11800
C742        C  0.47877482  0.83458814  0.51700632     0.02100
H743        H  0.50079924  0.95056347  0.53874319     0.15100
H744        H  0.47700581  0.80593206  0.44559878     0.15100
C745        C  0.48301961  0.78761866  0.53606080     0.36800
C746        C  0.46044546  0.96904676  0.46515571     0.36700
N747        N  0.48691198  0.74993619  0.55105894    -0.43600
N748        N  0.44461100  0.00597219  0.46019612    -0.43600
C749        C  0.48304351  0.04367026  0.36847660     0.00000
C750        C  0.52225221  0.01711445  0.37591089    -0.11900
C751        C  0.52133989  0.96844878  0.38481697     0.02300
C752        C  0.48225720  0.94088560  0.37491709    -0.00100
C753        C  0.44766599  0.96539093  0.35127061    -0.11800
C754        C  0.44760201  0.01576354  0.34773429     0.02100
H755        H  0.55409969  0.03494867  0.37858245     0.15100
H756        H  0.42047297  0.94580198  0.33493966     0.15100
C757        C  0.41512665  0.03473832  0.31554226     0.36800
C758        C  0.55974847  0.95017459  0.40958973     0.36700
N759        N  0.38928676  0.04830029  0.28850078    -0.43600
N760        N  0.59039722  0.93692060  0.43056147    -0.43600
C761        C  0.62768612  0.56744730  0.12913519     0.00000
C762        C  0.66351545  0.56989051  0.16261963    -0.11900
C763        C  0.68234461  0.61265730  0.17872150     0.02300
C764        C  0.66730980  0.65577220  0.16109154    -0.00100
C765        C  0.63229071  0.65539932  0.12804504    -0.11800
C766        C  0.61255306  0.61225249  0.11195227     0.02100
H767        H  0.67977859  0.53866768  0.17566230     0.15100
H768        H  0.62145096  0.68879756  0.11341244     0.15100
C769        C  0.57833235  0.61530920  0.07607653     0.36800
C770        C  0.71903312  0.61129808  0.21214292     0.36700
N771        N  0.55039069  0.61790689  0.04793449    -0.43600
N772        N  0.74840910  0.61053791  0.23879843    -0.43600
C773        C  0.63625869  0.47763811  0.13559353     0.00000
C774        C  0.66989844  0.45069705  0.11323061    -0.11900
C775        C  0.69274362  0.41412712  0.13628507     0.02300
C776        C  0.68327353  0.40418044  0.18315591    -0.00100
C777        C  0.65215412  0.43221308  0.20674067    -0.11800
C778        C  0.62906143  0.46857474  0.18417722     0.02100
H779        H  0.67847210  0.45755319  0.07752303     0.15100
H780        H  0.64436223  0.42421549  0.24267527     0.15100
C781        C  0.59810362  0.49569430  0.21238170     0.36800
C782        C  0.72465016  0.38589089  0.11058200     0.36700
N783        N  0.57337051  0.51681336  0.23553837    -0.43600
N784        N  0.75023625  0.36324116  0.08999951    -0.43600
C785        C  0.64498498  0.46130453  0.87390124     0.00000
C786        C  0.64537091  0.45276304  0.82441041    -0.11900
C787        C  0.67156765  0.41640654  0.80262926     0.02300
C788        C  0.70096710  0.38855121  0.82967292    -0.00100
C789        C  0.70199046  0.39820972  0.87813141    -0.11800
C790        C  0.67500968  0.43205736  0.90028344     0.02100
H791        H  0.62490848  0.47493998  0.80225074     0.15100
H792        H  0.72495474  0.37865114  0.90019486     0.15100
C793        C  0.68360398  0.43569274  0.95008645     0.36800
C794        C  0.66656428  0.40785613  0.75291462     0.36700
N795        N  0.69240919  0.43647617  0.98965783    -0.43600
N796        N  0.66198291  0.40097130  0.71304359    -0.43600
C797        C  0.62041268  0.50822109  0.95056887     0.00000
C798        C  0.64438583  0.54283747  0.97763167    -0.11900
C799        C  0.64634721  0.54255850  0.02734407     0.02300
C800        C  0.61669478  0.51374560  0.05354871    -0.00100
C801        C  0.59357082  0.47889642  0.02607994    -0.11800
C802        C  0.59657351  0.47457120  0.97705334     0.02100
H803        H  0.66353193  0.56964902  0.96073282     0.15100
H804        H  0.57386649  0.45253763  0.04209122     0.15100
C805        C  0.57878290  0.43153703  0.95544716     0.36800
C806        C  0.68349815  0.56769417  0.04898527     0.36700
N807        N  0.56663058  0.39595078  0.93862273    -0.43600
N808        N  0.71408214  0.58714669  0.06550744    -0.43600
C809        C  0.35037124  0.38095527  0.18077225     0.00000
C810        C  0.35376348  0.37385503  0.13231334    -0.11900
C811        C  0.37523482  0.40722018  0.10429283     0.02300
C812        C  0.39459230  0.44939004  0.12537518    -0.00100
C813        C  0.39498689  0.45254320  0.17504849    -0.11800
C814        C  0.37250046  0.41977802  0.20228761     0.02100
H815        H  0.33702914  0.34343148  0.11586189     0.15100
H816        H  0.41022758  0.48314362  0.19266622     0.15100
C817        C  0.37078299  0.42789947  0.25229530     0.36800
C818        C  0.37300440  0.39725061  0.05458772     0.36700
N819        N  0.36923107  0.43427305  0.29238771    -0.43600
N820        N  0.37042047  0.38788798  0.01495932    -0.43600
C821        C  0.38286336  0.53883757  0.11323182     0.00000
C822        C  0.39637171  0.58599649  0.10312546    -0.11900
C823        C  0.37509859  0.62653596  0.12348395     0.02300
C824        C  0.33757076  0.62069538  0.15201395    -0.00100
C825        C  0.31990815  0.57467488  0.15479778    -0.11800
C826        C  0.33984158  0.53516415  0.13352215     0.02100
H827        H  0.42563991  0.59113510  0.08213592     0.15100
H828        H  0.28873771  0.56927582  0.17262119     0.15100
C829        C  0.31119248  0.49402427  0.12778822     0.36800
C830        C  0.39203542  0.67331452  0.11423834     0.36700
N831        N  0.28678792  0.46230712  0.12331737    -0.43600
N832        N  0.40553701  0.71088845  0.10672417    -0.43600
C833        C  0.46301509  0.50022228  0.11834871     0.00000
C834        C  0.49075083  0.46005200  0.11984801    -0.11900
C835        C  0.53725060  0.46367009  0.11910884     0.02300
C836        C  0.55837334  0.50957371  0.11973396    -0.00100
C837        C  0.53048396  0.54666941  0.13672652    -0.11800
C838        C  0.48372002  0.54149733  0.13860601     0.02100
H839        H  0.47602023  0.42488494  0.11903515     0.15100
H840        H  0.54479441  0.57850901  0.15249274     0.15100
C841        C  0.46174497  0.57049096  0.17360837     0.36800
C842        C  0.56083978  0.41869797  0.11872279     0.36700
N843        N  0.44499975  0.59317499  0.20272001    -0.43600
N844        N  0.57887851  0.38230519  0.11824554    -0.43600
C845        C  0.39862847  0.54639134  0.86576766     0.00000
C846        C  0.39499858  0.54765775  0.81624579    -0.11900
C847        C  0.37026463  0.58290848  0.79343523     0.02300
C848        C  0.35242385  0.62145612  0.81921403    -0.00100
C849        C  0.36239854  0.62536052  0.86708915    -0.11800
C850        C  0.38601841  0.58936314  0.89042044     0.02100
H851        H  0.40791378  0.51818302  0.79542133     0.15100
H852        H  0.35047713  0.65618230  0.88673844     0.15100
C853        C  0.39839512  0.60035282  0.93848471     0.36800
C854        C  0.36137378  0.57732856  0.74378613     0.36700
N855        N  0.40841377  0.61036060  0.97674696    -0.43600
N856        N  0.35387778  0.57277239  0.70408353    -0.43600
C857        C  0.39307916  0.45304131  0.86654796     0.00000
C858        C  0.35145356  0.45699774  0.84204601    -0.11900
C859        C  0.32820081  0.41738054  0.82246398     0.02300
C860        C  0.34454949  0.37098367  0.82787021    -0.00100
C861        C  0.38373386  0.36561798  0.85424176    -0.11800
C862        C  0.40715350  0.40496673  0.87415790     0.02100
H863        H  0.33511089  0.49100918  0.83920152     0.15100
H864        H  0.39521139  0.32980484  0.86119348     0.15100
C865        C  0.44514978  0.39267335  0.90245106     0.36800
C866        C  0.28675065  0.42506840  0.79756684     0.36700
N867        N  0.47497555  0.37926038  0.92446102    -0.43600
N868        N  0.25361290  0.43089424  0.77734183    -0.43600
C869        C  0.46981141  0.50348386  0.87636729     0.00000
C870        C  0.49298464  0.54138646  0.89899712    -0.11900
C871        C  0.53929881  0.54331107  0.90274359     0.02300
C872        C  0.56638515  0.50606961  0.88376285    -0.00100
C873        C  0.54357426  0.47112023  0.85572117    -0.11800
C874        C  0.49646976  0.47164572  0.84943080     0.02100
H875        H  0.47465499  0.56877548  0.91722445     0.15100
H876        H  0.56182904  0.44319976  0.83804765     0.15100
C877        C  0.47761466  0.44297656  0.81162292     0.36800
C878        C  0.55773889  0.58499006  0.92664278     0.36700
N879        N  0.46273732  0.42072981  0.78056266    -0.43600
N880        N  0.57216751  0.61890934  0.94494380    -0.43600
C881        C  0.41382815  0.49633520  0.94261480     0.00000
C882        C  0.45000643  0.47917031  0.96950207    -0.11900
C883        C  0.44706498  0.46950264  0.01695280     0.02300
C884        C  0.41190245  0.48894208  0.04420090    -0.00100
C885        C  0.37416124  0.50377435  0.01749867    -0.11800
C886        C  0.37376706  0.50392578  0.96777218     0.02100
H887        H  0.47995332  0.46700792  0.95258671     0.15100
H888        H  0.34395866  0.51397387  0.03521841     0.15100
C889        C  0.33227339  0.51478752  0.94425532     0.36800
C890        C  0.47142204  0.42737163  0.02940748     0.36700
N891        N  0.29890228  0.52423189  0.92596199    -0.43600
N892        N  0.49015072  0.39212859  0.03616978    -0.43600
C893        C  0.12282905  0.61434539  0.52758518     0.00000
C894        C  0.15483205  0.58606694  0.55113611    -0.11900
C895        C  0.17577459  0.60121424  0.59250764     0.02300
C896        C  0.16583266  0.64651080  0.61171558    -0.00100
C897        C  0.13892282  0.67715524  0.58579968    -0.11800
C898        C  0.11905666  0.66260273  0.54354240     0.02100
H899        H  0.16428662  0.55138778  0.53734023     0.15100
H900        H  0.13304434  0.71322968  0.59863779     0.15100
C901        C  0.09369024  0.69891515  0.52055815     0.36800
C902        C  0.20833882  0.56965482  0.61290543     0.36700
N903        N  0.07449265  0.73138964  0.50649656    -0.43600
N904        N  0.23451616  0.54416958  0.62867796    -0.43600
C905        C  0.17210684  0.64937307  0.36721904     0.00000
C906        C  0.12820373  0.66382489  0.37344140    -0.11900
C907        C  0.10360727  0.64854585  0.41102063     0.02300
C908        C  0.12179625  0.61423779  0.44202972    -0.00100
C909        C  0.16752848  0.60311395  0.43716021    -0.11800
C910        C  0.19226967  0.61928196  0.39977385     0.02100
H911        H  0.11329310  0.68874552  0.34929986     0.15100
H912        H  0.18363390  0.57949209  0.46152392     0.15100
C913        C  0.23820868  0.60481857  0.39605198     0.36800
C914        C  0.06325002  0.67487816  0.41882009     0.36700
N915        N  0.27497548  0.59303099  0.39312110    -0.43600
N916        N  0.03254159  0.69894898  0.42472304    -0.43600
C917        C  0.87201008  0.62219474  0.45055192     0.00000
C918        C  0.82484935  0.61888518  0.45405328    -0.11900
C919        C  0.79589179  0.64193834  0.42362284     0.02300
C920        C  0.81353839  0.66836281  0.38725857    -0.00100
C921        C  0.85945069  0.67088512  0.38221417    -0.11800
C922        C  0.88866050  0.64825549  0.41227105     0.02100
H923        H  0.81035758  0.59800025  0.48134127     0.15100
H924        H  0.87312065  0.69137699  0.35400749     0.15100
C925        C  0.93360811  0.65045604  0.39672761     0.36800
C926        C  0.74857598  0.63771697  0.43083527     0.36700
N927        N  0.96732051  0.65229715  0.37797956    -0.43600
N928        N  0.71073125  0.63448960  0.43703451    -0.43600
C929        C  0.95075989  0.60194154  0.49019841     0.00000
C930        C  0.97238090  0.58077871  0.45190522    -0.11900
C931        C  0.01830667  0.58234142  0.44688137     0.02300
C932        C  0.04619882  0.60155002  0.48343025    -0.00100
C933        C  0.02488116  0.61747226  0.52440397    -0.11800
C934        C  0.97879966  0.61632774  0.52905422     0.02100
H935        H  0.95265246  0.56393424  0.42410244     0.15100
H936        H  0.04406630  0.62593031  0.55573137     0.15100
C937        C  0.96424332  0.62222800  0.57689538     0.36800
C938        C  0.03447749  0.56357291  0.40291940     0.36700
N939        N  0.95406392  0.62659112  0.61567215    -0.43600
N940        N  0.04432907  0.54896790  0.36633463    -0.43600
C941        C  0.11081542  0.35499247  0.46751519     0.00000
C942        C  0.15762439  0.36264142  0.46711400    -0.11900
C943        C  0.18264889  0.35295612  0.42748844     0.02300
C944        C  0.16169497  0.33285224  0.38763571    -0.00100
C945        C  0.11728072  0.31836119  0.38977519    -0.11800
C946        C  0.09181315  0.32801700  0.42925805     0.02100
H947        H  0.17408150  0.38084016  0.49641323     0.15100
H948        H  0.10220345  0.29954064  0.35997287     0.15100
C949        C  0.04780823  0.30746614  0.42839066     0.36800
C950        C  0.22964307  0.36391617  0.42881245     0.36700
N951        N  0.01284694  0.29015508  0.42649868    -0.43600
N952        N  0.26729041  0.37264673  0.43025212    -0.43600
C953        C  0.16093022  0.31832354  0.62184599     0.00000
C954        C  0.13286018  0.29002656  0.59406862    -0.11900
C955        C  0.10636365  0.30987932  0.55949843     0.02300
C956        C  0.10726588  0.36007092  0.55227124    -0.00100
C957        C  0.13560417  0.38811915  0.58206763    -0.11800
C958        C  0.16162224  0.36768156  0.61704913     0.02100
H959        H  0.13270416  0.25174036  0.59855860     0.15100
H960        H  0.14037528  0.42562636  0.57678703     0.15100
C961        C  0.19045139  0.39758513  0.64608382     0.36800
C962        C  0.07866886  0.27686147  0.53272129     0.36700
N963        N  0.21342903  0.42145181  0.66952574    -0.43600
N964        N  0.05652893  0.24864834  0.51357267    -0.43600
C965        C  0.09298182  0.43628623  0.50317703     0.00000
C966        C  0.10952996  0.45497394  0.46100998    -0.11900
C967        C  0.11300106  0.50352248  0.45279838     0.02300
C968        C  0.09838831  0.53709001  0.48710820    -0.00100
C969        C  0.08016328  0.51842553  0.52837245    -0.11800
C970        C  0.07660218  0.46995387  0.53630097     0.02100
H971        H  0.11730146  0.43190557  0.43153627     0.15100
H972        H  0.06832395  0.54258616  0.55550470     0.15100
C973        C  0.05524393  0.45699304  0.57909741     0.36800
C974        C  0.12875872  0.51501112  0.40694821     0.36700
N975        N  0.03834481  0.44889153  0.61413238    -0.43600
N976        N  0.14140057  0.52205539  0.36966753    -0.43600
C977        C  0.86111200  0.36495610  0.53149617     0.00000
C978        C  0.83440348  0.39369132  0.56154072    -0.11900
C979        C  0.81811845  0.37684224  0.60357602     0.02300
C980        C  0.82486395  0.32906944  0.61472412    -0.00100
C981        C  0.84608783  0.29878224  0.58223586    -0.11800
C982        C  0.86321128  0.31559028  0.54088773     0.02100
H983        H  0.82694585  0.43024033  0.55349681     0.15100
H984        H  0.85011182  0.26125857  0.58935701     0.15100
C985        C  0.88504514  0.28093081  0.51097875     0.36800
C986        C  0.79450318  0.40933764  0.63418412     0.36700
N987        N  0.90224408  0.25186717  0.48830531    -0.43600
N988        N  0.77587191  0.43551864  0.65883524    -0.43600
C989        C  0.86722202  0.36255448  0.44455964     0.00000
C990        C  0.89398167  0.33161478  0.41753686    -0.11900
C991        C  0.88002296  0.31207584  0.37491740     0.02300
C992        C  0.83661027  0.32153822  0.35737414    -0.00100
C993        C  0.80773595  0.34845582  0.38575190    -0.11800
C994        C  0.82211597  0.36784469  0.42930708     0.02100
H995        H  0.92674727  0.32142057  0.42954716     0.15100
H996        H  0.77368979  0.35422777  0.37410358     0.15100
C997        C  0.79003176  0.39426221  0.45656773     0.36800
C998        C  0.91204608  0.28196906  0.35108041     0.36700
N999        N  0.76399803  0.41557143  0.47787361    -0.43600
N1000       N  0.93782852  0.25788698  0.33238376    -0.43600
C1001       C  0.88373927  0.44198587  0.49185752     0.00000
C1002       C  0.86907381  0.46706994  0.45254753    -0.11900
C1003       C  0.87360349  0.51622408  0.44979703     0.02300
C1004       C  0.89037106  0.54348814  0.48909460    -0.00100
C1005       C  0.90628904  0.51815517  0.52766938    -0.11800
C1006       C  0.90234787  0.46922718  0.53022090     0.02100
H1007       H  0.85806352  0.44830850  0.42110717     0.15100
H1008       H  0.92180643  0.53728869  0.55696229     0.15100
C1009       C  0.91813329  0.44892762  0.57348738     0.36800
C1010       C  0.86663269  0.53453154  0.40338498     0.36700
N1011       N  0.93019446  0.43385473  0.60883689    -0.43600
N1012       N  0.86133790  0.54775014  0.36565105    -0.43600
C1013       C  0.93856753  0.37911918  0.49377314     0.00000
C1014       C  0.95898303  0.35925351  0.53353394    -0.11900
C1015       C  0.00512353  0.35928334  0.54069324     0.02300
C1016       C  0.03383127  0.37596843  0.50516935    -0.00100
C1017       C  0.01317885  0.39538841  0.46537017    -0.11800
C1018       C  0.96739021  0.39750992  0.45934590     0.02100
H1019       H  0.93911667  0.34752273  0.56217551     0.15100
H1020       H  0.03356592  0.40916271  0.43780170     0.15100
C1021       C  0.95194421  0.41823947  0.41617135     0.36800
C1022       C  0.01935009  0.34659909  0.58730121     0.36700
N1023       N  0.94090124  0.43432292  0.38092784    -0.43600
N1024       N  0.02913965  0.33664128  0.62518052    -0.43600
C1025       C  0.84306502  0.67154208  0.61258574     0.00000
C1026       C  0.86830439  0.69657972  0.58088401    -0.11900
C1027       C  0.88628967  0.67367740  0.54198280     0.02300
C1028       C  0.87998535  0.62368379  0.53458721    -0.00100
C1029       C  0.85261654  0.59959480  0.56633404    -0.11800
C1030       C  0.83528395  0.62271513  0.60551943     0.02100
H1031       H  0.87275991  0.73472493  0.58584225     0.15100
H1032       H  0.84221380  0.56323321  0.55995661     0.15100
C1033       C  0.80625604  0.59646807  0.63553140     0.36800
C1034       C  0.91142000  0.70278251  0.51077612     0.36700
N1035       N  0.78295152  0.57543215  0.65941814    -0.43600
N1036       N  0.93144418  0.72689409  0.48646011    -0.43600
C1037       C  0.67485607  0.63493958  0.82852828     0.00000
C1038       C  0.70191621  0.60508790  0.85553773    -0.11900
C1039       C  0.68568644  0.56322220  0.87502034     0.02300
C1040       C  0.63977451  0.55068909  0.87026443    -0.00100
C1041       C  0.61449206  0.57857245  0.83806472    -0.11800
C1042       C  0.63099966  0.62048081  0.81866290     0.02100
H1043       H  0.73648591  0.61482001  0.86179755     0.15100
H1044       H  0.58101897  0.56867560  0.82756313     0.15100
C1045       C  0.60140782  0.64918004  0.79078117     0.36800
C1046       C  0.71809764  0.53467959  0.89938787     0.36700
N1047       N  0.57756778  0.67226869  0.76866496    -0.43600
N1048       N  0.74565191  0.51344920  0.91842495    -0.43600
C1049       C  0.60142469  0.80097863  0.65428581     0.00000
C1050       C  0.56988308  0.81739398  0.68617023    -0.11900
C1051       C  0.53353251  0.84585395  0.67227717     0.02300
C1052       C  0.52294487  0.85290689  0.62346415    -0.00100
C1053       C  0.55698743  0.83807396  0.59243262    -0.11800
C1054       C  0.59490387  0.81291056  0.60676291     0.02100
H1055       H  0.57655691  0.81262012  0.72322335     0.15100
H1056       H  0.55611422  0.84785221  0.55616091     0.15100
C1057       C  0.62727371  0.80175516  0.57121247     0.36800
C1058       C  0.51674391  0.87499312  0.71015588     0.36700
N1059       N  0.65322482  0.79378596  0.54257261    -0.43600
N1060       N  0.50659768  0.89841639  0.74213587    -0.43600
C1061       C  0.65673878  0.84068994  0.86158044     0.00000
C1062       C  0.61352164  0.82498645  0.86947916    -0.11900
C1063       C  0.59060197  0.84095350  0.90885324     0.02300
C1064       C  0.61140221  0.87467935  0.94055356    -0.00100
C1065       C  0.65456391  0.89106714  0.92983950    -0.11800
C1066       C  0.67567549  0.87689284  0.88948622     0.02100
H1067       H  0.59982421  0.79591120  0.84807036     0.15100
H1068       H  0.67274967  0.91497384  0.95325280     0.15100
C1069       C  0.71797760  0.89823706  0.87852268     0.36800
C1070       C  0.55069195  0.81463805  0.91918829     0.36700
N1071       N  0.75152874  0.91571833  0.86941525    -0.43600
N1072       N  0.51913776  0.79273113  0.92698639    -0.43600
C1073       C  0.82526384  0.85988481  0.67321190     0.00000
C1074       C  0.84520924  0.89171446  0.70574590    -0.11900
C1075       C  0.86572580  0.93419898  0.69116254     0.02300
C1076       C  0.86922454  0.94449546  0.64244014    -0.00100
C1077       C  0.84613918  0.91263492  0.61120766    -0.11800
C1078       C  0.82573136  0.87119452  0.62558903     0.02100
H1079       H  0.84335032  0.88430911  0.74273342     0.15100
H1080       H  0.84176811  0.91978964  0.57454447     0.15100
C1081       C  0.80434022  0.84121115  0.58994300     0.36800
C1082       C  0.88276717  0.96603082  0.72754622     0.36700
N1083       N  0.78700469  0.81765357  0.56131904    -0.43600
N1084       N  0.89634364  0.99035848  0.75773328    -0.43600
C1085       C  0.88236573  0.67935445  0.83524556     0.00000
C1086       C  0.91757500  0.70868671  0.85044285    -0.11900
C1087       C  0.95530900  0.68986629  0.87323176     0.02300
C1088       C  0.96050103  0.63953977  0.87770807    -0.00100
C1089       C  0.92159581  0.61205633  0.86879578    -0.11800
C1090       C  0.88361318  0.63099029  0.84696140     0.02100
H1091       H  0.91534475  0.74669106  0.84503170     0.15100
H1092       H  0.91997377  0.57542013  0.87909150     0.15100
C1093       C  0.84649264  0.59964152  0.83641592     0.36800
C1094       C  0.98890114  0.72352289  0.88888739     0.36700
N1095       N  0.81694602  0.57426075  0.82803405    -0.43600
N1096       N  0.01485918  0.75199523  0.90051825    -0.43600
loop_ 
_geom_bond_atom_site_label_1 
_geom_bond_atom_site_label_2 
_geom_bond_distance 
_geom_bond_site_symmetry_2 
_ccdc_geom_bond_type 
O1           Ni7   1.915       .  S
O1           C22   1.267       .  A
O2          Ni25   1.937       .  S
O2           C11   1.274       .  A
O3           Ni7   1.895       .  S
O3          Ni25   1.927       .  S
O3          Ni19   1.895       .  S
O3           H26   0.959       .  S
C4           O21   1.268       .  A
C4           O13   1.274       .  A
C4         C1061   1.443       .  S
O5          Ni24   1.920       .  S
O5           C11   1.266       .  A
O6          Ni24   1.897       .  S
O6            C8   1.267       .  A
Ni7          O10   1.920       .  S
Ni7          O12   1.894       .  S
C8           O18   1.282       .  A
C8         C1037   1.493       .  S
O9          Ni25   1.885       .  S
O9           C15   1.268       .  A
O10          C15   1.272       .  A
C11        C1085   1.485       .  S
O12          C14   1.262       .  A
O13         Ni24   1.892       .  S
C14          O20   1.279       .  A
C14        C1073   1.486       .  S
C15        C1025   1.448       .  S
H16          O17   0.968       .  S
O17         Ni25   1.881       .  S
O17         Ni19   1.916       .  S
O17         Ni24   1.886       .  S
O18         Ni19   1.957       .  S
Ni19         O23   1.936       .  S
Ni19         O21   1.892       .  S
O20         Ni25   1.975       .  S
C22          O23   1.279       .  A
C22        C1049   1.505       .  S
C27         C977   1.558       .  S
C27         C989   1.567       .  S
C27        C1001   1.555       .  S
C27        C1013   1.567       .  S
C28         C941   1.563       .  S
C28         C956   1.549       .  S
C28         C965   1.576       .  S
C28        C1016   1.557       .  S
C29         C917   1.557       .  S
C29         C929   1.561       .  S
C29        C1004   1.556       .  S
C29        C1028   1.552       .  S
C30         C893   1.565       .  S
C30         C908   1.550       .  S
C30         C932   1.556       .  S
C30         C968   1.568       .  S
C31         C845   1.587       .  S
C31         C857   1.606       .  S
C31         C869   1.587       .  S
C31         C881   1.586       .  S
C32         C812   1.574       .  S
C32         C821   1.591       .  S
C32         C833   1.597       .  S
C32         C884   1.591       .  S
C33         C785   1.597       .  S
C33         C797   1.598       .  S
C33         C872   1.591       .  S
C33        C1040   1.589       .  S
C34         C761   1.592       .  S
C34         C773   1.571       .  S
C34         C800   1.610       .  S
C34         C836   1.597       .  S
C35         C713   1.573       .  S
C35         C725   1.570       .  S
C35         C740   1.587       .  S
C35         C752   1.587       .  S
C36         C680   1.601       .  S
C36         C692   1.584       .  S
C36         C701   1.618       .  S
C36         C749   1.608       .  S
C37         C653   1.607       .  S
C37         C668   1.586       .  S
C37         C737   1.615       .  S
C37        C1052   1.604       .  S
C38         C629   1.575       .  S
C38         C644   1.580       .  S
C38         C665   1.586       .  S
C38         C704   1.602       .  S
O39         Ni45   1.920       .  S
O39          C60   1.271       .  A
O40         Ni63   1.923       .  S
O40          C49   1.271       .  A
O41         Ni45   1.885       .  S
O41         Ni63   1.901       .  S
O41         Ni57   1.902       .  S
O41          H64   0.969       .  S
C42          O59   1.276       .  A
C42          O51   1.276       .  A
C42         C596   1.466       .  S
O43         Ni62   1.916       .  S
O43          C49   1.268       .  A
O44         Ni62   1.909       .  S
O44          C46   1.267       .  A
Ni45         O48   1.909       .  S
Ni45         O50   1.914       .  S
C46          O56   1.282       .  A
C46         C860   1.500       .  S
O47         Ni63   1.898       .  S
O47          C53   1.272       .  A
O48          C53   1.276       .  A
C49         C605   1.474       .  S
O50          C52   1.271       .  A
O51         Ni62   1.897       .  S
C52          O58   1.284       .  A
C52         C620   1.517       .  S
C53         C953   1.444       .  S
H54          O55   0.973       .  S
O55         Ni63   1.899       .  S
O55         Ni57   1.910       .  S
O55         Ni62   1.887       .  S
O56         Ni57   1.969       .  S
Ni57         O61   1.923       .  S
Ni57         O59   1.913       .  S
O58         Ni63   1.972       .  S
C60          O61   1.274       .  A
C60         C641   1.472       .  S
O65         Ni71   1.917       .  S
O65          C86   1.266       .  A
O66         Ni89   1.961       .  S
O66          C75   1.279       .  A
O67         Ni71   1.885       .  S
O67         Ni89   1.918       .  S
O67         Ni83   1.908       .  S
O67          H90   0.966       .  S
C68          O85   1.279       .  A
C68          O77   1.279       .  A
C68         C905   1.463       .  S
O69         Ni88   1.911       .  S
O69          C75   1.265       .  A
O70         Ni88   1.888       .  S
O70          C72   1.264       .  A
Ni71         O74   1.910       .  S
Ni71         O76   1.882       .  S
C72          O82   1.273       .  A
C72         C584   1.477       .  S
O73         Ni89   1.907       .  S
O73          C79   1.278       .  A
O74          C79   1.275       .  A
C75         C824   1.506       .  S
O76          C78   1.265       .  A
O77         Ni88   1.917       .  S
C78          O84   1.276       .  A
C78         C728   1.484       .  S
C79         C572   1.479       .  S
H80          O81   0.964       .  S
O81         Ni89   1.907       .  S
O81         Ni83   1.902       .  S
O81         Ni88   1.879       .  S
O82         Ni83   1.931       .  S
Ni83         O87   1.954       .  S
Ni83         O85   1.904       .  S
O84         Ni89   1.941       .  S
C86          O87   1.276       .  A
C86         C557   1.499       .  S
O91         Ni97   1.932       .  S
O91         C112   1.275       .  A
O92        Ni115   1.934       .  S
O92         C101   1.276       .  A
O93         Ni97   1.886       .  S
O93        Ni115   1.910       .  S
O93        Ni109   1.924       .  S
O93         H116   0.967       .  S
C94         O111   1.286       .  A
C94         O103   1.276       .  A
C94         C521   1.504       .  S
O95        Ni114   1.917       .  S
O95         C101   1.267       .  A
O96        Ni114   1.891       .  S
O96          C98   1.264       .  A
Ni97        O100   1.940       .  S
Ni97        O102   1.896       .  S
C98         O108   1.275       .  A
C98         C992   1.489       .  S
O99        Ni115   1.934       .  S
O99         C105   1.281       .  A
O100        C105   1.279       .  A
C101        C545   1.480       .  S
O102        C104   1.267       .  A
O103       Ni114   1.917       .  S
C104        O110   1.273       .  A
C104        C533   1.465       .  S
C105        C689   1.492       .  S
H106        O107   0.965       .  S
O107       Ni115   1.925       .  S
O107       Ni109   1.897       .  S
O107       Ni114   1.880       .  S
O108       Ni109   1.938       .  S
Ni109       O113   1.918       .  S
Ni109       O111   1.965       .  S
O110       Ni115   1.943       .  S
C112        O113   1.277       .  A
C112        C776   1.477       .  S
O117       Ni123   1.891       .  S
O117        C138   1.263       .  A
O118       Ni141   1.926       .  S
O118        C127   1.275       .  A
O119       Ni123   1.869       .  S
O119       Ni141   1.880       .  S
O119       Ni135   1.936       .  S
O119        H142   0.966       .  S
C120        O137   1.293       .  A
C120        O129   1.278       .  A
C120        C488   1.515       .  S
O121       Ni140   1.891       .  S
O121        C127   1.260       .  A
O122       Ni140   1.881       .  S
O122        C124   1.264       .  A
Ni123       O126   1.905       .  S
Ni123       O128   1.907       .  S
C124        O134   1.285       .  A
C124        C788   1.524       .  S
O125       Ni141   1.955       .  S
O125        C131   1.292       .  A
O126        C131   1.278       .  A
C127        C497   1.473       .  S
O128        C130   1.264       .  A
O129       Ni140   1.910       .  S
C130        O136   1.277       .  A
C130        C509   1.493       .  S
C131        C632   1.498       .  S
H132        O133   0.965       .  S
O133       Ni141   1.930       .  S
O133       Ni135   1.884       .  S
O133       Ni140   1.852       .  S
O134       Ni135   1.992       .  S
Ni135       O139   1.921       .  S
Ni135       O137   1.973       .  S
O136       Ni141   1.959       .  S
C138        O139   1.277       .  A
C138        C980   1.474       .  S
C143        C449   1.552   1_556  S
C143        C464   1.561       .  S
C143        C476   1.587       .  S
C143       C1064   1.543       .  S
C144        C437   1.606       .  S
C144        C473   1.552       .  S
C144        C500   1.556   1_554  S
C144        C536   1.586       .  S
C145        C413   1.564       .  S
C145        C428   1.566       .  S
C145        C461   1.550       .  S
C145        C569   1.558   1_556  S
C146        C401   1.571       .  S
C146        C425   1.584   1_554  S
C146        C440   1.585       .  S
C146        C593   1.571   1_554  S
O147       Ni153   1.927       .  S
O147        C168   1.271       .  A
O148       Ni171   1.959       .  S
O148        C157   1.280       .  A
O149       Ni153   1.894       .  S
O149       Ni171   1.917       .  S
O149       Ni165   1.900       .  S
O149        H172   0.966       .  S
C150        O167   1.281       .  A
C150        O159   1.276       .  A
C150        C416   1.465       .  S
O151       Ni170   1.903       .  S
O151        C157   1.263       .  A
O152       Ni170   1.908       .  S
O152        C154   1.267       .  A
Ni153       O156   1.916       .  S
Ni153       O158   1.907       .  S
C154        O164   1.275       .  A
C154        C656   1.494       .  S
O155       Ni171   1.887       .  S
O155        C161   1.274       .  A
O156        C161   1.276       .  A
C157        C380   1.495       .  S
O158        C160   1.269       .  A
O159       Ni170   1.903       .  S
C160        O166   1.286       .  A
C160        C389   1.506       .  S
C161        C896   1.474       .  S
H162        O163   0.968       .  S
O163       Ni171   1.900       .  S
O163       Ni165   1.900       .  S
O163       Ni170   1.892       .  S
O164       Ni165   1.955       .  S
Ni165       O169   1.933       .  S
Ni165       O167   1.914       .  S
O166       Ni171   1.973       .  S
C168        O169   1.275       .  A
C168        C848   1.486       .  S
C173        C356   1.592       .  S
C173        C365   1.594       .  S
C173        C512   1.592   1_565  S
C173       C1076   1.587       .  S
C174        C344   1.612       .  S
C174        C368   1.620       .  S
C174        C377   1.605   1_545  S
C174        C617   1.590       .  S
C175        C317   1.579       .  S
C175        C329   1.577       .  S
C175        C353   1.577       .  S
C175        C548   1.583   1_565  S
C176        C305   1.574       .  S
C176        C332   1.593       .  S
C176        C341   1.612       .  S
C176        C560   1.594   1_545  S
O177       Ni183   1.918       .  S
O177        C198   1.266       .  A
O178       Ni201   1.931       .  S
O178        C187   1.272       .  A
O179       Ni183   1.898       .  S
O179       Ni201   1.920       .  S
O179       Ni195   1.905       .  S
O179        H202   0.956       .  S
C180        O197   1.277       .  A
C180        O189   1.273       .  A
C180        C920   1.462       .  S
O181       Ni200   1.903       .  S
O181        C187   1.263       .  A
O182       Ni200   1.898       .  S
O182        C184   1.267       .  A
Ni183       O186   1.896       .  S
Ni183       O188   1.904       .  S
C184        O194   1.280       .  A
C184        C320   1.489       .  S
O185       Ni201   1.901       .  S
O185        C191   1.273       .  A
O186        C191   1.274       .  A
C187        C716   1.482       .  S
O188        C190   1.268       .  A
O189       Ni200   1.903       .  S
C190        O196   1.273       .  A
C190        C764   1.477       .  S
C191        C452   1.465       .  S
H192        O193   0.969       .  S
O193       Ni201   1.907       .  S
O193       Ni195   1.896       .  S
O193       Ni200   1.890       .  S
O194       Ni195   1.955       .  S
Ni195       O199   1.941       .  S
Ni195       O197   1.892       .  S
O196       Ni201   1.939       .  S
C198        O199   1.277       .  A
C198        C293   1.486       .  S
C203        C272   1.588       .  S
C203        C281   1.599       .  S
C203        C392   1.602       .  S
C203       C1088   1.581   1_455  S
C204        C260   1.612       .  S
C204        C284   1.612       .  S
C204        C296   1.580   1_455  S
C204        C581   1.575       .  S
C205        C248   1.597       .  S
C205        C269   1.584       .  S
C205        C485   1.605   1_455  S
C205        C608   1.570       .  S
C206        C233   1.618       .  S
C206        C245   1.602       .  S
C206        C257   1.611   1_455  S
C206        C524   1.580   1_455  S
O207       Ni213   1.943       .  S
O207        C228   1.277       .  A
O208       Ni231   1.930       .  S
O208        C217   1.273       .  A
O209       Ni213   1.898       .  S
O209       Ni231   1.908       .  S
O209       Ni225   1.899       .  S
O209        H232   0.966       .  S
C210        O227   1.271       .  A
C210        O219   1.274       .  A
C210        C404   1.471       .  S
O211       Ni230   1.916       .  S
O211        C217   1.270       .  A
O212       Ni230   1.904       .  S
O212        C214   1.267       .  A
Ni213       O216   1.933       .  S
Ni213       O218   1.923       .  S
C214        O224   1.281       .  A
C214        C677   1.508       .  S
O215       Ni231   1.882       .  S
O215        C221   1.268       .  A
O216        C221   1.280       .  A
C217        C308   1.493       .  S
O218        C220   1.273       .  A
O219       Ni230   1.906       .  S
C220        O226   1.287       .  A
C220        C236   1.517       .  S
C221        C944   1.461       .  S
H222        O223   0.963       .  S
O223       Ni231   1.902       .  S
O223       Ni225   1.911       .  S
O223       Ni230   1.901       .  S
O224       Ni225   1.966       .  S
Ni225       O229   1.911       .  S
Ni225       O227   1.897       .  S
O226       Ni231   1.973       .  S
C228        O229   1.269       .  A
C228        C809   1.481       .  S
C233        C234   1.431       .  A
C233        C238   1.437       .  A
C234        C235   1.414       .  A
C234        H239   1.079       .  S
C235        C236   1.409       .  A
C235        C242   1.444       .  S
C236        C237   1.408       .  A
C237        C238   1.419       .  A
C237        H240   1.085       .  S
C238        C241   1.442       .  S
C241        N243   1.156       .  T
C242        N244   1.157       .  T
C245        C246   1.419       .  A
C245        C250   1.421   1_455  A
C246        C247   1.420   1_554  A
C246        H251   1.078       .  S
C247        C248   1.436       .  A
C247        C254   1.443       .  S
C248        C249   1.413   1_455  A
C249        C250   1.400   1_556  A
C249        H252   1.085       .  S
C250        C253   1.441       .  S
C253        N255   1.158       .  T
C254        N256   1.158       .  T
C257        C258   1.419   1_655  A
C257        C262   1.431       .  A
C258        C259   1.425       .  A
C258        H263   1.080       .  S
C259        C260   1.440       .  A
C259        C266   1.444       .  S
C260        C261   1.403   1_455  A
C261        C262   1.405       .  A
C261        H264   1.062       .  S
C262        C265   1.441       .  S
C265        N267   1.158       .  T
C266        N268   1.158       .  T
C269        C270   1.414   1_455  A
C269        C274   1.429       .  A
C270        C271   1.410       .  A
C270        H275   1.071       .  S
C271        C272   1.424   1_655  A
C271        C278   1.442       .  S
C272        C273   1.416       .  A
C273        C274   1.402       .  A
C273        H276   1.081       .  S
C274        C277   1.444       .  S
C277        N279   1.157       .  T
C278        N280   1.157       .  T
C281        C282   1.420   1_455  A
C281        C286   1.427       .  A
C282        C283   1.404   1_556  A
C282        H287   1.079       .  S
C283        C284   1.422   1_655  A
C283        C290   1.444       .  S
C284        C285   1.429       .  A
C285        C286   1.422   1_554  A
C285        H288   1.079       .  S
C286        C289   1.440       .  S
C289        N291   1.158       .  T
C290        N292   1.158       .  T
C293        C294   1.399       .  A
C293        C298   1.406       .  A
C294        C295   1.405       .  A
C294        H299   1.085       .  S
C295        C296   1.434       .  A
C295        C302   1.444       .  S
C296        C297   1.423       .  A
C297        C298   1.411       .  A
C297        H300   1.081       .  S
C298        C301   1.443       .  S
C301        N303   1.157       .  T
C302        N304   1.158       .  T
C305        C306   1.426       .  A
C305        C310   1.428       .  A
C306        C307   1.414       .  A
C306        H311   1.081       .  S
C307        C308   1.409       .  A
C307        C314   1.442       .  S
C308        C309   1.401       .  A
C309        C310   1.395       .  A
C309        H312   1.086       .  S
C310        C313   1.444       .  S
C313        N315   1.157       .  T
C314        N316   1.157       .  T
C317        C318   1.415       .  A
C317        C322   1.436       .  A
C318        C319   1.395       .  A
C318        H323   1.080       .  S
C319        C320   1.410       .  A
C319        C326   1.446       .  S
C320        C321   1.402       .  A
C321        C322   1.414       .  A
C321        H324   1.085       .  S
C322        C325   1.443       .  S
C325        N327   1.158       .  T
C326        N328   1.157       .  T
C329        C330   1.412       .  A
C329        C334   1.427   1_565  A
C330        C331   1.417   1_655  A
C330        H335   1.079       .  S
C331        C332   1.433   1_565  A
C331        C338   1.442       .  S
C332        C333   1.409       .  A
C333        C334   1.394   1_455  A
C333        H336   1.069       .  S
C334        C337   1.445       .  S
C337        N339   1.158       .  T
C338        N340   1.158       .  T
C341        C342   1.418       .  A
C341        C346   1.429   1_545  A
C342        C343   1.404       .  A
C342        H347   1.084       .  S
C343        C344   1.428       .  A
C343        C350   1.445       .  S
C344        C345   1.424   1_545  A
C345        C346   1.420       .  A
C345        H348   1.078       .  S
C346        C349   1.443       .  S
C349        N351   1.158       .  T
C350        N352   1.158       .  T
C353        C354   1.408       .  A
C353        C358   1.425   1_565  A
C354        C355   1.396       .  A
C354        H359   1.077       .  S
C355        C356   1.429       .  A
C355        C362   1.444       .  S
C356        C357   1.419   1_565  A
C357        C358   1.411       .  A
C357        H360   1.075       .  S
C358        C361   1.444       .  S
C361        N363   1.158       .  T
C362        N364   1.157       .  T
C365        C366   1.416   1_565  A
C365        C370   1.426       .  A
C366        C367   1.416   1_655  A
C366        H371   1.085       .  S
C367        C368   1.434       .  A
C367        C374   1.435       .  S
C368        C369   1.429   1_545  A
C369        C370   1.413   1_455  A
C369        H372   1.079       .  S
C370        C373   1.441       .  S
C373        N375   1.158       .  T
C374        N376   1.158       .  T
C377        C378   1.420       .  A
C377        C382   1.444       .  A
C378        C379   1.397       .  A
C378        H383   1.080       .  S
C379        C380   1.410       .  A
C379        C386   1.447       .  S
C380        C381   1.401       .  A
C381        C382   1.417       .  A
C381        H384   1.085       .  S
C382        C385   1.444       .  S
C385        N387   1.157       .  T
C386        N388   1.157       .  T
C389        C390   1.394       .  A
C389        C394   1.414       .  A
C390        C391   1.411       .  A
C390        H395   1.086       .  S
C391        C392   1.448       .  A
C391        C398   1.443       .  S
C392        C393   1.419       .  A
C393        C394   1.414       .  A
C393        H396   1.078       .  S
C394        C397   1.444       .  S
C397        N399   1.157       .  T
C398        N400   1.158   1_455  T
C401        C402   1.419       .  A
C401        C406   1.433       .  A
C402        C403   1.382       .  A
C402        H407   1.073       .  S
C403        C404   1.403       .  A
C403        C410   1.449       .  S
C404        C405   1.403       .  A
C405        C406   1.399       .  A
C405        H408   1.085       .  S
C406        C409   1.448       .  S
C409        N411   1.158       .  T
C410        N412   1.157       .  T
C413        C414   1.424       .  A
C413        C418   1.424       .  A
C414        C415   1.382       .  A
C414        H419   1.079       .  S
C415        C416   1.399       .  A
C415        C422   1.448       .  S
C416        C417   1.403       .  A
C417        C418   1.401       .  A
C417        H420   1.085       .  S
C418        C421   1.445       .  S
C421        N423   1.157   1_556  T
C422        N424   1.157       .  T
C425        C426   1.405   1_556  A
C425        C430   1.444       .  A
C426        C427   1.385   1_545  A
C426        H431   1.060       .  S
C427        C428   1.423   1_554  A
C427        C434   1.449       .  S
C428        C429   1.407       .  A
C429        C430   1.405   1_565  A
C429        H432   1.078       .  S
C430        C433   1.447       .  S
C433        N435   1.158       .  T
C434        N436   1.158       .  T
C437        C438   1.419       .  A
C437        C442   1.445   1_554  A
C438        C439   1.402       .  A
C438        H443   1.062       .  S
C439        C440   1.427       .  A
C439        C446   1.451       .  S
C440        C441   1.404   1_554  A
C441        C442   1.394       .  A
C441        H444   1.075       .  S
C442        C445   1.450       .  S
C445        N447   1.158       .  T
C446        N448   1.158       .  T
C449        C450   1.422       .  A
C449        C454   1.424       .  A
C450        C451   1.396       .  A
C450        H455   1.085       .  S
C451        C452   1.405       .  A
C451        C458   1.443       .  S
C452        C453   1.399       .  A
C453        C454   1.383       .  A
C453        H456   1.086       .  S
C454        C457   1.444   1_554  S
C457        N459   1.158       .  T
C458        N460   1.157       .  T
C461        C462   1.408   1_556  A
C461        C466   1.420       .  A
C462        C463   1.397       .  A
C462        H467   1.079       .  S
C463        C464   1.431   1_554  A
C463        C470   1.445       .  S
C464        C465   1.400       .  A
C465        C466   1.374       .  A
C465        H468   1.065       .  S
C466        C469   1.450       .  S
C469        N471   1.158       .  T
C470        N472   1.158       .  T
C473        C474   1.407   1_554  A
C473        C478   1.422       .  A
C474        C475   1.383   1_545  A
C474        H479   1.070       .  S
C475        C476   1.420       .  A
C475        C482   1.446       .  S
C476        C477   1.422   1_556  A
C477        C478   1.396   1_565  A
C477        H480   1.081       .  S
C478        C481   1.447       .  S
C481        N483   1.158       .  T
C482        N484   1.158       .  T
C485        C486   1.418       .  A
C485        C490   1.437       .  A
C486        C487   1.398       .  A
C486        H491   1.078       .  S
C487        C488   1.420       .  A
C487        C494   1.447       .  S
C488        C489   1.408       .  A
C489        C490   1.419       .  A
C489        H492   1.084       .  S
C490        C493   1.445       .  S
C493        N495   1.157   1_655  T
C494        N496   1.158       .  T
C497        C498   1.393       .  A
C497        C502   1.415       .  A
C498        C499   1.400       .  A
C498        H503   1.086       .  S
C499        C500   1.438       .  A
C499        C506   1.443       .  S
C500        C501   1.413       .  A
C501        C502   1.389       .  A
C501        H504   1.085       .  S
C502        C505   1.447       .  S
C505        N507   1.157       .  T
C506        N508   1.158       .  T
C509        C510   1.398       .  A
C509        C514   1.407       .  A
C510        C511   1.413       .  A
C510        H515   1.085       .  S
C511        C512   1.439       .  A
C511        C518   1.442       .  S
C512        C513   1.423       .  A
C513        C514   1.407       .  A
C513        H516   1.084       .  S
C514        C517   1.444       .  S
C517        N519   1.157       .  T
C518        N520   1.158       .  T
C521        C522   1.404       .  A
C521        C526   1.415       .  A
C522        C523   1.409       .  A
C522        H527   1.085       .  S
C523        C524   1.430       .  A
C523        C530   1.444       .  S
C524        C525   1.418       .  A
C525        C526   1.411       .  A
C525        H528   1.083       .  S
C526        C529   1.445       .  S
C529        N531   1.157       .  T
C530        N532   1.157   1_655  T
C533        C534   1.393       .  A
C533        C538   1.401       .  A
C534        C535   1.398       .  A
C534        H539   1.086       .  S
C535        C536   1.436       .  A
C535        C542   1.444       .  S
C536        C537   1.421       .  A
C537        C538   1.397       .  A
C537        H540   1.084       .  S
C538        C541   1.443       .  S
C541        N543   1.157       .  T
C542        N544   1.158   1_554  T
C545        C546   1.394       .  A
C545        C550   1.407       .  A
C546        C547   1.405       .  A
C546        H551   1.085       .  S
C547        C548   1.438       .  A
C547        C554   1.444   1_545  S
C548        C549   1.415       .  A
C549        C550   1.402       .  A
C549        H552   1.072       .  S
C550        C553   1.446       .  S
C553        N555   1.157       .  T
C554        N556   1.158       .  T
C557        C558   1.394       .  A
C557        C562   1.411       .  A
C558        C559   1.397       .  A
C558        H563   1.087       .  S
C559        C560   1.438       .  A
C559        C566   1.443   1_565  S
C560        C561   1.427       .  A
C561        C562   1.425       .  A
C561        H564   1.084       .  S
C562        C565   1.441       .  S
C565        N567   1.157       .  T
C566        N568   1.157       .  T
C569        C570   1.416       .  A
C569        C574   1.428       .  A
C570        C571   1.391       .  A
C570        H575   1.080       .  S
C571        C572   1.412       .  A
C571        C578   1.447       .  S
C572        C573   1.399       .  A
C573        C574   1.393       .  A
C573        H576   1.085       .  S
C574        C577   1.445       .  S
C577        N579   1.158   1_554  T
C578        N580   1.158       .  T
C581        C582   1.427       .  A
C581        C586   1.429       .  A
C582        C583   1.395       .  A
C582        H587   1.077       .  S
C583        C584   1.401       .  A
C583        C590   1.447       .  S
C584        C585   1.404       .  A
C585        C586   1.400       .  A
C585        H588   1.085       .  S
C586        C589   1.446       .  S
C589        N591   1.157       .  T
C590        N592   1.157       .  T
C593        C594   1.413       .  A
C593        C598   1.438       .  A
C594        C595   1.378       .  A
C594        H599   1.067   1_556  S
C595        C596   1.405       .  A
C595        C602   1.451       .  S
C596        C597   1.399       .  A
C597        C598   1.404       .  A
C597        H600   1.085       .  S
C598        C601   1.448       .  S
C601        N603   1.157       .  T
C602        N604   1.157       .  T
C605        C606   1.394       .  A
C605        C610   1.401       .  A
C606        C607   1.399       .  A
C606        H611   1.087       .  S
C607        C608   1.437       .  A
C607        C614   1.443       .  S
C608        C609   1.424       .  A
C609        C610   1.404       .  A
C609        H612   1.084       .  S
C610        C613   1.443       .  S
C613        N615   1.157       .  T
C614        N616   1.158       .  T
C617        C618   1.421       .  A
C617        C622   1.434       .  A
C618        C619   1.422       .  A
C618        H623   1.081       .  S
C619        C620   1.417       .  A
C619        C626   1.442       .  S
C620        C621   1.405       .  A
C621        C622   1.407       .  A
C621        H624   1.085       .  S
C622        C625   1.446       .  S
C625        N627   1.158   1_545  T
C626        N628   1.157       .  T
C629        C630   1.414       .  A
C629        C634   1.436       .  A
C630        C631   1.399       .  A
C630        H635   1.076       .  S
C631        C632   1.419       .  A
C631        C638   1.447       .  S
C632        C633   1.399       .  A
C633        C634   1.405       .  A
C633        H636   1.085       .  S
C634        C637   1.444       .  S
C637        N639   1.157       .  T
C638        N640   1.158       .  T
C641        C642   1.397       .  A
C641        C646   1.401       .  A
C642        C643   1.406       .  A
C642        H647   1.085       .  S
C643        C644   1.436       .  A
C643        C650   1.446       .  S
C644        C645   1.421       .  A
C645        C646   1.395       .  A
C645        H648   1.077       .  S
C646        C649   1.446       .  S
C649        N651   1.157       .  T
C650        N652   1.158       .  T
C653        C654   1.419       .  A
C653        C658   1.442       .  A
C654        C655   1.394       .  A
C654        H659   1.075       .  S
C655        C656   1.398       .  A
C655        C662   1.446       .  S
C656        C657   1.404       .  A
C657        C658   1.424       .  A
C657        H660   1.085       .  S
C658        C661   1.439       .  S
C661        N663   1.158       .  T
C662        N664   1.157       .  T
C665        C666   1.414       .  A
C665        C670   1.436       .  A
C666        C667   1.404   1_545  A
C666        H671   1.085       .  S
C667        C668   1.430       .  A
C667        C674   1.445       .  S
C668        C669   1.410       .  A
C669        C670   1.408   1_565  A
C669        H672   1.080       .  S
C670        C673   1.442       .  S
C673        N675   1.157       .  T
C674        N676   1.157       .  T
C677        C678   1.405       .  A
C677        C682   1.408       .  A
C678        C679   1.412       .  A
C678        H683   1.085       .  S
C679        C680   1.433       .  A
C679        C686   1.442       .  S
C680        C681   1.431       .  A
C681        C682   1.412       .  A
C681        H684   1.079       .  S
C682        C685   1.445       .  S
C685        N687   1.157       .  T
C686        N688   1.156       .  T
C689        C690   1.399       .  A
C689        C694   1.407       .  A
C690        C691   1.402       .  A
C690        H695   1.083       .  S
C691        C692   1.431       .  A
C691        C698   1.444       .  S
C692        C693   1.424       .  A
C693        C694   1.411       .  A
C693        H696   1.080       .  S
C694        C697   1.443       .  S
C697        N699   1.157       .  T
C698        N700   1.157       .  T
C701        C702   1.420       .  A
C701        C706   1.431       .  A
C702        C703   1.404       .  A
C702        H707   1.067       .  S
C703        C704   1.422       .  A
C703        C710   1.445       .  S
C704        C705   1.423       .  A
C705        C706   1.422       .  A
C705        H708   1.078       .  S
C706        C709   1.443       .  S
C709        N711   1.158       .  T
C710        N712   1.157       .  T
C713        C714   1.412       .  A
C713        C718   1.437       .  A
C714        C715   1.398       .  A
C714        H719   1.077       .  S
C715        C716   1.413       .  A
C715        C722   1.446       .  S
C716        C717   1.395       .  A
C717        C718   1.402       .  A
C717        H720   1.085       .  S
C718        C721   1.446       .  S
C721        N723   1.158       .  T
C722        N724   1.157       .  T
C725        C726   1.428       .  A
C725        C730   1.420       .  A
C726        C727   1.401       .  A
C726        H731   1.081       .  S
C727        C728   1.403       .  A
C727        C734   1.445       .  S
C728        C729   1.406       .  A
C729        C730   1.397       .  A
C729        H732   1.085       .  S
C730        C733   1.441       .  S
C733        N735   1.157       .  T
C734        N736   1.158       .  T
C737        C738   1.413       .  A
C737        C742   1.435       .  A
C738        C739   1.373       .  A
C738        H743   1.076       .  S
C739        C740   1.414       .  A
C739        C746   1.435       .  S
C740        C741   1.426       .  A
C741        C742   1.433       .  A
C741        H744   1.084       .  S
C742        C745   1.445       .  S
C745        N747   1.157       .  T
C746        N748   1.153   1_565  T
C749        C750   1.411       .  A
C749        C754   1.435       .  A
C750        C751   1.398   1_545  A
C750        H755   1.081       .  S
C751        C752   1.428       .  A
C751        C758   1.445       .  S
C752        C753   1.419       .  A
C753        C754   1.422   1_565  A
C753        H756   1.079       .  S
C754        C757   1.442       .  S
C757        N759   1.158       .  T
C758        N760   1.157       .  T
C761        C762   1.430       .  A
C761        C766   1.434       .  A
C762        C763   1.394       .  A
C762        H767   1.076       .  S
C763        C764   1.396       .  A
C763        C770   1.448       .  S
C764        C765   1.403       .  A
C765        C766   1.414       .  A
C765        H768   1.085       .  S
C766        C769   1.445       .  S
C769        N771   1.157       .  T
C770        N772   1.157       .  T
C773        C774   1.415       .  A
C773        C778   1.437       .  A
C774        C775   1.407       .  A
C774        H779   1.078       .  S
C775        C776   1.408       .  A
C775        C782   1.444       .  S
C776        C777   1.395       .  A
C777        C778   1.400       .  A
C777        H780   1.086       .  S
C778        C781   1.446       .  S
C781        N783   1.157       .  T
C782        N784   1.157       .  T
C785        C786   1.429       .  A
C785        C790   1.438       .  A
C786        C787   1.427       .  A
C786        H791   1.084       .  S
C787        C788   1.414       .  A
C787        C794   1.441       .  S
C788        C789   1.405       .  A
C789        C790   1.397       .  A
C789        H792   1.086       .  S
C790        C793   1.444       .  S
C793        N795   1.157       .  T
C794        N796   1.157       .  T
C797        C798   1.418       .  A
C797        C802   1.425       .  A
C798        C799   1.421   1_556  A
C798        H803   1.076       .  S
C799        C800   1.435       .  A
C799        C806   1.444       .  S
C800        C801   1.416       .  A
C801        C802   1.408   1_554  A
C801        H804   1.064       .  S
C802        C805   1.444       .  S
C805        N807   1.156       .  T
C806        N808   1.158       .  T
C809        C810   1.400       .  A
C809        C814   1.402       .  A
C810        C811   1.410       .  A
C810        H815   1.086       .  S
C811        C812   1.436       .  A
C811        C818   1.442       .  S
C812        C813   1.420       .  A
C813        C814   1.400       .  A
C813        H816   1.084       .  S
C814        C817   1.444       .  S
C817        N819   1.157       .  T
C818        N820   1.158       .  T
C821        C822   1.424       .  A
C821        C826   1.430       .  A
C822        C823   1.424       .  A
C822        H827   1.084       .  S
C823        C824   1.414       .  A
C823        C830   1.441       .  S
C824        C825   1.402       .  A
C825        C826   1.393       .  A
C825        H828   1.085       .  S
C826        C829   1.446       .  S
C829        N831   1.158       .  T
C830        N832   1.157       .  T
C833        C834   1.405       .  A
C833        C838   1.423       .  A
C834        C835   1.401       .  A
C834        H839   1.082       .  S
C835        C836   1.437       .  A
C835        C842   1.449       .  S
C836        C837   1.419       .  A
C837        C838   1.415       .  A
C837        H840   1.079       .  S
C838        C841   1.443       .  S
C841        N843   1.158       .  T
C842        N844   1.158       .  T
C845        C846   1.419       .  A
C845        C850   1.438       .  A
C846        C847   1.405       .  A
C846        H851   1.084       .  S
C847        C848   1.407       .  A
C847        C854   1.445       .  S
C848        C849   1.398       .  A
C849        C850   1.411       .  A
C849        H852   1.085       .  S
C850        C853   1.444       .  S
C853        N855   1.158       .  T
C854        N856   1.157       .  T
C857        C858   1.430       .  A
C857        C862   1.437       .  A
C858        C859   1.414       .  A
C858        H863   1.079       .  S
C859        C860   1.405       .  A
C859        C866   1.444       .  S
C860        C861   1.398       .  A
C861        C862   1.414       .  A
C861        H864   1.086       .  S
C862        C865   1.436       .  S
C865        N867   1.155       .  T
C866        N868   1.157       .  T
C869        C870   1.411       .  A
C869        C874   1.422       .  A
C870        C871   1.395       .  A
C870        H875   1.076       .  S
C871        C872   1.428       .  A
C871        C878   1.448       .  S
C872        C873   1.422       .  A
C873        C874   1.424       .  A
C873        H876   1.078       .  S
C874        C877   1.441       .  S
C877        N879   1.157       .  T
C878        N880   1.157       .  T
C881        C882   1.413       .  A
C881        C886   1.425       .  A
C882        C883   1.393   1_556  A
C882        H887   1.080       .  S
C883        C884   1.424       .  A
C883        C890   1.441       .  S
C884        C885   1.425       .  A
C885        C886   1.421   1_554  A
C885        H888   1.082       .  S
C886        C889   1.443       .  S
C889        N891   1.157       .  T
C890        N892   1.158       .  T
C893        C894   1.420       .  A
C893        C898   1.426       .  A
C894        C895   1.388       .  A
C894        H899   1.083       .  S
C895        C896   1.409       .  A
C895        C902   1.446       .  S
C896        C897   1.399       .  A
C897        C898   1.391       .  A
C897        H900   1.086       .  S
C898        C901   1.439       .  S
C901        N903   1.157       .  T
C902        N904   1.157       .  T
C905        C906   1.393       .  A
C905        C910   1.403       .  A
C906        C907   1.389       .  A
C906        H911   1.087       .  S
C907        C908   1.428       .  A
C907        C914   1.439       .  S
C908        C909   1.418       .  A
C909        C910   1.396       .  A
C909        H912   1.082       .  S
C910        C913   1.444       .  S
C913        N915   1.157       .  T
C914        N916   1.157       .  T
C917        C918   1.425       .  A
C917        C922   1.428       .  A
C918        C919   1.392       .  A
C918        H923   1.084       .  S
C919        C920   1.402       .  A
C919        C926   1.445       .  S
C920        C921   1.391       .  A
C921        C922   1.384       .  A
C921        H924   1.087       .  S
C922        C925   1.430       .  S
C925        N927   1.155       .  T
C926        N928   1.157       .  T
C929        C930   1.402       .  A
C929        C934   1.434       .  A
C930        C931   1.390   1_655  A
C930        H935   1.084       .  S
C931        C932   1.425       .  A
C931        C938   1.442       .  S
C932        C933   1.407       .  A
C933        C934   1.394   1_455  A
C933        H936   1.079       .  S
C934        C937   1.448       .  S
C937        N939   1.158       .  T
C938        N940   1.157       .  T
C941        C942   1.423       .  A
C941        C946   1.427       .  A
C942        C943   1.391       .  A
C942        H947   1.083       .  S
C943        C944   1.400       .  A
C943        C950   1.445       .  S
C944        C945   1.398       .  A
C945        C946   1.395       .  A
C945        H948   1.085       .  S
C946        C949   1.442       .  S
C949        N951   1.158       .  T
C950        N952   1.157       .  T
C953        C954   1.387       .  A
C953        C958   1.398       .  A
C954        C955   1.387       .  A
C954        H959   1.087       .  S
C955        C956   1.431       .  A
C955        C962   1.444       .  S
C956        C957   1.420       .  A
C957        C958   1.394       .  A
C957        H960   1.078       .  S
C958        C961   1.445       .  S
C961        N963   1.157       .  T
C962        N964   1.157       .  T
C965        C966   1.423       .  A
C965        C970   1.416       .  A
C966        C967   1.394       .  A
C966        H971   1.079       .  S
C967        C968   1.419       .  A
C967        C974   1.444       .  S
C968        C969   1.420       .  A
C969        C970   1.391       .  A
C969        H972   1.083       .  S
C970        C973   1.444       .  S
C973        N975   1.157       .  T
C974        N976   1.158       .  T
C977        C978   1.422       .  A
C977        C982   1.421       .  A
C978        C979   1.397       .  A
C978        H983   1.081       .  S
C979        C980   1.401       .  A
C979        C986   1.444       .  S
C980        C981   1.405       .  A
C981        C982   1.389       .  A
C981        H984   1.085       .  S
C982        C985   1.445       .  S
C985        N987   1.158       .  T
C986        N988   1.157       .  T
C989        C990   1.410       .  A
C989        C994   1.426       .  A
C990        C991   1.383       .  A
C990        H995   1.079       .  S
C991        C992   1.418       .  A
C991        C998   1.449       .  S
C992        C993   1.406       .  A
C993        C994   1.408       .  A
C993        H996   1.084       .  S
C994        C997   1.444       .  S
C997        N999   1.157       .  T
C998       N1000   1.158       .  T
C1001      C1002   1.406       .  A
C1001      C1006   1.429       .  A
C1002      C1003   1.392       .  A
C1002      H1007   1.078       .  S
C1003      C1004   1.430       .  A
C1003      C1010   1.446       .  S
C1004      C1005   1.404       .  A
C1005      C1006   1.384       .  A
C1005      H1008   1.083       .  S
C1006      C1009   1.447       .  S
C1009      N1011   1.158       .  T
C1010      N1012   1.158       .  T
C1013      C1014   1.410       .  A
C1013      C1018   1.427       .  A
C1014      C1015   1.398   1_655  A
C1014      H1019   1.078       .  S
C1015      C1016   1.430       .  A
C1015      C1022   1.445       .  S
C1016      C1017   1.409       .  A
C1017      C1018   1.385   1_455  A
C1017      H1020   1.084       .  S
C1018      C1021   1.447       .  S
C1021      N1023   1.158       .  T
C1022      N1024   1.158       .  T
C1025      C1026   1.394       .  A
C1025      C1030   1.401       .  A
C1026      C1027   1.388       .  A
C1026      H1031   1.086       .  S
C1027      C1028   1.428       .  A
C1027      C1034   1.446       .  S
C1028      C1029   1.418       .  A
C1029      C1030   1.390       .  A
C1029      H1032   1.079       .  S
C1030      C1033   1.447       .  S
C1033      N1035   1.157       .  T
C1034      N1036   1.157       .  T
C1037      C1038   1.405       .  A
C1037      C1042   1.401       .  A
C1038      C1039   1.404       .  A
C1038      H1043   1.085       .  S
C1039      C1040   1.427       .  A
C1039      C1046   1.443       .  S
C1040      C1041   1.432       .  A
C1041      C1042   1.407       .  A
C1041      H1044   1.080       .  S
C1042      C1045   1.444       .  S
C1045      N1047   1.157       .  T
C1046      N1048   1.157       .  T
C1049      C1050   1.396       .  A
C1049      C1054   1.417       .  A
C1050      C1051   1.412       .  A
C1050      H1055   1.086       .  S
C1051      C1052   1.444       .  A
C1051      C1058   1.440       .  S
C1052      C1053   1.421       .  A
C1053      C1054   1.402       .  A
C1053      H1056   1.079       .  S
C1054      C1057   1.447       .  S
C1057      N1059   1.157       .  T
C1058      N1060   1.158       .  T
C1061      C1062   1.395       .  A
C1061      C1066   1.394       .  A
C1062      C1063   1.394       .  A
C1062      H1067   1.086       .  S
C1063      C1064   1.432       .  A
C1063      C1070   1.447       .  S
C1064      C1065   1.417       .  A
C1065      C1066   1.376       .  A
C1065      H1068   1.079       .  S
C1066      C1069   1.447       .  S
C1069      N1071   1.157       .  T
C1070      N1072   1.158       .  T
C1073      C1074   1.402       .  A
C1073      C1078   1.405       .  A
C1074      C1075   1.418       .  A
C1074      H1079   1.084       .  S
C1075      C1076   1.434       .  A
C1075      C1082   1.443       .  S
C1076      C1077   1.422       .  A
C1077      C1078   1.390       .  A
C1077      H1080   1.078       .  S
C1078      C1081   1.449       .  S
C1081      N1083   1.157       .  T
C1082      N1084   1.157       .  T
C1085      C1086   1.398       .  A
C1085      C1090   1.408       .  A
C1086      C1087   1.408       .  A
C1086      H1091   1.085       .  S
C1087      C1088   1.432       .  A
C1087      C1094   1.442       .  S
C1088      C1089   1.417       .  A
C1089      C1090   1.403       .  A
C1089      H1092   1.079       .  S
C1090      C1093   1.445       .  S
C1093      N1095   1.157       .  T
C1094      N1096   1.157   1_655  T
