geometry optimzed in LAMMPS
_audit_creation_date              2020-11-30 
_audit_creation_method            'lammps2cif' 
_symmetry_space_group_name_H-M    'P1' 
_symmetry_Int_Tables_number       1 
_symmetry_cell_setting            triclinic 
loop_ 
_symmetry_equiv_pos_as_xyz 
  x,y,z 
_cell_length_a                    46.75900981 
_cell_length_b                    46.905095842483725 
_cell_length_c                    54.07916921285205 
_cell_angle_alpha                 90.06024385585584 
_cell_angle_beta                  89.87626256511516 
_cell_angle_gamma                 118.60489351034502 
loop_ 
_atom_site_label 
_atom_site_type_symbol 
_atom_site_fract_x 
_atom_site_fract_y 
_atom_site_fract_z 
_atom_site_charge 
O1          O  0.27090457  0.10233728  0.88732559    -0.77500
C2          C  0.37528079  0.12830800  0.87923308     0.83600
O3          O  0.32341155  0.13586077  0.96691634    -0.78600
O4          O  0.40998815  0.21507060  0.93017452    -0.80100
O5          O  0.33423991  0.22187613  0.87076312    -0.79800
O6          O  0.26785490  0.14611927  0.87483394    -0.78500
Zn7        Zn  0.31391997  0.12032872  0.90617891     1.55700
O8          O  0.38483698  0.22904283  0.87528573    -0.79900
Cd9        Cd  0.30539605  0.18350123  0.89388223     1.59700
Cd10       Cd  0.33120484  0.17498286  0.94620524     1.59600
O11         O  0.28199132  0.19917192  0.91908187    -0.79900
O12         O  0.33257981  0.16699389  0.91066838    -1.90400
Cd13       Cd  0.37942566  0.19183857  0.89969510     1.59900
O14         O  0.29511581  0.18551174  0.95497493    -0.79800
O15         O  0.39220744  0.15901554  0.88264647    -0.78500
C16         C  0.31285629  0.10623136  0.96148169     0.84100
C17         C  0.25642978  0.11537770  0.87561873     0.83700
O18         O  0.34591368  0.11218249  0.88671449    -0.77400
C19         C  0.36471101  0.23738933  0.86610589     0.84500
O20         O  0.30694544  0.09615236  0.93916678    -0.77500
C21         C  0.27920527  0.19608568  0.94249721     0.84700
C22         C  0.40293522  0.22270626  0.95119401     0.85000
O23         O  0.37374999  0.21211927  0.95833021    -0.79900
O24         O  0.39912123  0.22564195  0.59164352    -0.77500
C25         C  0.30205940  0.21257315  0.58136358     0.83600
O26         O  0.35176538  0.21801526  0.67347142    -0.78600
O27         O  0.25554957  0.13043520  0.63482165    -0.80100
O28         O  0.33118069  0.10924702  0.58893300    -0.79800
O29         O  0.40132316  0.17923751  0.59042481    -0.78500
Zn30       Zn  0.35941817  0.21719461  0.61135620     1.55700
O31         O  0.28503463  0.11176087  0.58428097    -0.79900
Cd32       Cd  0.36023993  0.14867410  0.61114597     1.59700
Cd33       Cd  0.33269050  0.17175059  0.65862424     1.59600
O34         O  0.37364092  0.13111620  0.64185339    -0.79900
O35         O  0.33599883  0.17218950  0.62180098    -1.90400
Cd36       Cd  0.29100850  0.14986019  0.60713305     1.59900
O37         O  0.35638980  0.14866666  0.67406499    -0.79800
O38         O  0.28348008  0.18253463  0.58592903    -0.78500
C39         C  0.36807740  0.24564456  0.66326497     0.84100
C40         C  0.41268076  0.20909332  0.58460048     0.83700
O41         O  0.33078518  0.22800006  0.59004337    -0.77400
C42         C  0.30283103  0.09858027  0.57968869     0.84500
O43         O  0.37368885  0.24843574  0.64009609    -0.77500
C44         C  0.37031415  0.13334316  0.66511577     0.84700
C45         C  0.25768572  0.13123109  0.65838294     0.85000
O46         O  0.28486518  0.14608705  0.66952089    -0.79900
C47         C  0.00745212  0.50424324  0.78964190     0.46500
H48         H  0.01081585  0.50747150  0.80995527    -0.02500
C49         C  0.99993773  0.49713813  0.74192337     0.46600
H50         H  0.99691392  0.49410634  0.72153240    -0.02500
C51         C  0.03880182  0.02015060  0.77467059    -0.16200
C52         C  0.48875534  0.46780367  0.78107256    -0.16000
C53         C  0.48582754  0.01977901  0.77851564    -0.16300
C54         C  0.03494163  0.01636288  0.74945053    -0.16300
C55         C  0.48528298  0.46433551  0.75583031    -0.15900
C56         C  0.48214988  0.01538269  0.75333051    -0.16200
O57         O  0.22416734  0.39943148  0.37785963    -0.77500
C58         C  0.11789058  0.36405496  0.36785649     0.83600
O59         O  0.18606471  0.38676921  0.45955510    -0.78600
O60         O  0.08897332  0.29029451  0.42722951    -0.80100
O61         O  0.17088407  0.28300951  0.37326437    -0.79800
O62         O  0.23578343  0.35856923  0.37862763    -0.78500
Zn63       Zn  0.18128308  0.38356835  0.39665243     1.55700
O64         O  0.11889016  0.27104842  0.37763867    -0.79900
Cd65       Cd  0.19554681  0.32245659  0.39659063     1.59700
Cd66       Cd  0.16671655  0.33972970  0.44613423     1.59600
O67         O  0.21184945  0.30531070  0.42555726    -0.79900
O68         O  0.16632631  0.33956301  0.40909109    -1.90400
Cd69       Cd  0.12095395  0.30967198  0.39768642     1.59900
O70         O  0.19336081  0.31830389  0.45946234    -0.79800
O71         O  0.10481823  0.33466919  0.37519265    -0.78500
C72         C  0.19337291  0.41354874  0.44870060     0.84100
C73         C  0.24306069  0.38761514  0.37280460     0.83700
O74         O  0.14668484  0.38500140  0.37435771    -0.77400
C75         C  0.14066442  0.26471255  0.36908509     0.84500
O76         O  0.19112627  0.41520273  0.42529024    -0.77500
C77         C  0.20882099  0.30541793  0.44895504     0.84700
C78         C  0.09249683  0.29399827  0.45056860     0.85000
O79         O  0.12006765  0.31250588  0.46038136    -0.79900
O80         O  0.16906773  0.39839485  0.14789218    -0.77500
C81         C  0.23809173  0.36273113  0.16023593     0.83600
O82         O  0.20893707  0.37787690  0.06846006    -0.78600
O83         O  0.19348948  0.28258566  0.10777601    -0.80100
O84         O  0.09907391  0.27921273  0.14428666    -0.79800
O85         O  0.11714627  0.35935248  0.14627159    -0.78500
Zn86       Zn  0.19563118  0.38221340  0.12857222     1.55700
O87         O  0.14139644  0.27104011  0.15260606    -0.79900
Cd88       Cd  0.11986450  0.32344365  0.12489860     1.59700
Cd89       Cd  0.17297881  0.33557922  0.08213542     1.59600
O90         O  0.09372471  0.31679882  0.09165687    -0.79900
O91         O  0.16718396  0.33762659  0.11806828    -1.90400
Cd92       Cd  0.18038480  0.30708889  0.13378804     1.59900
O93         O  0.13213079  0.32677449  0.06337091    -0.79800
O94         O  0.22012429  0.33235531  0.15671731    -0.78500
C95         C  0.22225904  0.40655583  0.07693539     0.84100
C96         C  0.13906381  0.38738234  0.15343055     0.83700
O97         O  0.23157131  0.38377133  0.15054941    -0.77400
C98         C  0.11106583  0.26236528  0.15391857     0.84500
O99         O  0.21788793  0.41263015  0.09923318    -0.77500
C100        C  0.10310195  0.31931483  0.06913741     0.84700
C101        C  0.19201626  0.28194437  0.08425910     0.85000
O102        O  0.18361639  0.29996218  0.07225514    -0.79900
C103        C  0.99621099  0.00526924  0.28690323     0.46500
H104        H  0.99439958  0.00256625  0.30733943    -0.02500
C105        C  0.00079850  0.01188336  0.23904737     0.46600
H106        H  0.00263145  0.01453486  0.21860854    -0.02500
C107        C  0.01483967  0.48938017  0.27520431    -0.16200
C108        C  0.46143245  0.48994288  0.27460705    -0.16000
C109        C  0.01367486  0.04071727  0.27837517    -0.16300
C110        C  0.01687675  0.49290309  0.24977495    -0.16300
C111        C  0.46399424  0.49396204  0.24936903    -0.15900
C112        C  0.01615947  0.04444286  0.25312328    -0.16200
C113        C  0.07964471  0.17860036  0.18598032     0.19700
C114        C  0.09552258  0.16459458  0.19928502    -0.18400
C115        C  0.07802012  0.13372941  0.20969915    -0.10600
C116        C  0.04402794  0.11586255  0.20696411     0.22000
C117        C  0.02808237  0.12929901  0.19306387    -0.20000
C118        C  0.04563711  0.16049697  0.18278859    -0.10800
C119        C  0.02520375  0.08317064  0.21839923    -0.15000
C120        C  0.03320284  0.07673167  0.24078506    -0.28800
C121        C  0.10005010  0.21124274  0.17478251    -0.03100
C122        C  0.08893003  0.23117789  0.16627784    -0.39600
H123        H  0.12172300  0.17763763  0.20166993     0.13100
H124        H  0.09121984  0.12368942  0.21964091     0.12800
H125        H  0.00195545  0.11579460  0.19042429     0.12200
H126        H  0.03257168  0.16996378  0.17206816     0.12400
H127        H  0.00376775  0.06489822  0.20893345     0.15200
H128        H  0.05274391  0.09646286  0.25070456     0.14000
H129        H  0.12602198  0.21933741  0.17361079     0.11600
H130        H  0.06331006  0.22433721  0.16766557     0.13700
C131        C  0.38281753  0.44077407  0.21529512     0.19700
C132        C  0.36447284  0.40754977  0.20989251    -0.18400
C133        C  0.33466335  0.39537994  0.19751689    -0.10600
C134        C  0.32224070  0.41623898  0.19049709     0.22000
C135        C  0.34072122  0.44950664  0.19575159    -0.20000
C136        C  0.37052300  0.46166743  0.20812463    -0.10800
C137        C  0.29087413  0.40471585  0.17696560    -0.15000
C138        C  0.26769354  0.37337136  0.17549045    -0.28800
C139        C  0.41338050  0.45216338  0.22981267    -0.03100
C140        C  0.43596565  0.48351793  0.23228694    -0.39600
H141        H  0.37326117  0.39087626  0.21527254     0.13100
H142        H  0.32186267  0.36974807  0.19329179     0.12800
H143        H  0.33186038  0.46616991  0.19052012     0.12200
H144        H  0.38330196  0.48727942  0.21246789     0.12400
H145        H  0.28675880  0.42300135  0.16773556     0.15200
H146        H  0.27066381  0.35459876  0.18493368     0.14000
H147        H  0.41729175  0.43389700  0.23930459     0.11600
H148        H  0.43491599  0.50220728  0.22118095     0.13700
C149        C  0.08968778  0.42050600  0.19019822     0.19700
C150        C  0.05707573  0.41389571  0.18975531    -0.18400
C151        C  0.04665220  0.43212323  0.20399684    -0.10600
C152        C  0.06871003  0.45766155  0.21911842     0.22000
C153        C  0.10122311  0.46392860  0.21992702    -0.20000
C154        C  0.11167659  0.44567396  0.20564358    -0.10800
C155        C  0.05815927  0.47658745  0.23549342    -0.15000
C156        C  0.03023338  0.47780636  0.23215790    -0.28800
C157        C  0.09923636  0.39976401  0.17502441    -0.03100
C158        C  0.13017326  0.40826274  0.16867118    -0.39600
H159        H  0.03945390  0.39435189  0.17840798     0.13100
H160        H  0.02109303  0.42542441  0.20350487     0.12800
H161        H  0.11858878  0.48289815  0.23181223     0.12200
H162        H  0.13677627  0.45097844  0.20728089     0.12400
H163        H  0.07497319  0.99099837  0.25017399     0.15200
H164        H  0.01641485  0.46819351  0.21529943     0.14000
H165        H  0.07978346  0.37687435  0.16820847     0.11600
H166        H  0.14991143  0.43159428  0.17430068     0.13700
C167        C  0.39127046  0.45708562  0.32250794     0.19700
C168        C  0.37707033  0.47180322  0.33702033    -0.18400
C169        C  0.34602346  0.45318437  0.34739706    -0.10600
C170        C  0.32883509  0.41931559  0.34376273     0.22000
C171        C  0.34368023  0.40454782  0.33003799    -0.20000
C172        C  0.37440680  0.42317876  0.31938014    -0.10800
C173        C  0.29621892  0.39836448  0.35494323    -0.15000
C174        C  0.27462978  0.40877239  0.36051524    -0.28800
C175        C  0.42358322  0.47727311  0.31067964    -0.03100
C176        C  0.42974909  0.47082231  0.28765581    -0.39600
H177        H  0.38979323  0.49781835  0.33997641     0.13100
H178        H  0.33586754  0.46529896  0.35857040     0.12800
H179        H  0.33130813  0.37847649  0.32735660     0.12200
H180        H  0.38510643  0.41098326  0.30887176     0.12400
H181        H  0.28948548  0.37306271  0.35820669     0.15200
H182        H  0.28028853  0.43354883  0.35633943     0.14000
H183        H  0.44155848  0.49871562  0.32029732     0.11600
H184        H  0.41016000  0.45110251  0.27777720     0.13700
C185        C  0.06665185  0.12086329  0.31328420     0.19700
C186        C  0.09692277  0.14753383  0.30746875    -0.18400
C187        C  0.10807222  0.17702287  0.32002220    -0.10600
C188        C  0.08926986  0.18039297  0.33900042     0.22000
C189        C  0.05910134  0.15364390  0.34496096    -0.20000
C190        C  0.04793474  0.12413547  0.33238992    -0.10800
C191        C  0.09977569  0.21142782  0.35260189    -0.15000
C192        C  0.13097586  0.23505211  0.35420127    -0.28800
C193        C  0.05542843  0.09062961  0.29848141    -0.03100
C194        C  0.02406379  0.06778842  0.29630100    -0.39600
H195        H  0.11174192  0.14577962  0.29273518     0.13100
H196        H  0.13103352  0.19718513  0.31434241     0.12800
H197        H  0.04414316  0.15553188  0.35951975     0.12200
H198        H  0.02481111  0.10407408  0.33788598     0.12400
H199        H  0.08114738  0.21427023  0.36266548     0.15200
H200        H  0.15032686  0.23200702  0.34563404     0.14000
H201        H  0.07350743  0.08812948  0.28736242     0.11600
H202        H  0.00511448  0.06872404  0.30725026     0.13700
C203        C  0.08854273  0.41446747  0.32882346     0.19700
C204        C  0.09728240  0.44754595  0.32832059    -0.18400
C205        C  0.07907495  0.45857875  0.31477864    -0.10600
C206        C  0.05143711  0.43668848  0.30134287     0.22000
C207        C  0.04323214  0.40372257  0.30117493    -0.20000
C208        C  0.06146688  0.39264206  0.31477815    -0.10800
C209        C  0.03189176  0.44782037  0.28636575    -0.15000
C210        C  0.03154140  0.47586709  0.29090349    -0.28800
C211        C  0.10867314  0.40412271  0.34390502    -0.03100
C212        C  0.09834183  0.37343035  0.35157672    -0.39600
H213        H  0.11831065  0.46501210  0.33854984     0.13100
H214        H  0.08720154  0.48438381  0.31456477     0.12800
H215        H  0.02257424  0.38644970  0.29051734     0.12200
H216        H  0.05446105  0.36711209  0.31386148     0.12400
H217        H  0.01742988  0.43256729  0.27119163     0.15200
H218        H  0.04271532  0.48934640  0.30763461     0.14000
H219        H  0.13242633  0.42292682  0.34996688     0.11600
H220        H  0.07417668  0.35444062  0.34673139     0.13700
C221        C  0.22622032  0.47511437  0.50286022     0.19700
C222        C  0.24374273  0.47665349  0.52432657    -0.18400
C223        C  0.25484864  0.00348576  0.53962326    -0.10600
C224        C  0.25091232  0.03050667  0.53342664     0.22000
C225        C  0.23338403  0.02912184  0.51200498    -0.20000
C226        C  0.22067089  0.50139542  0.49733116    -0.10800
C227        C  0.26359216  0.05978879  0.54948184    -0.15000
C228        C  0.29052341  0.06975755  0.56344532    -0.28800
C229        C  0.21314818  0.44513620  0.48746760    -0.03100
C230        C  0.20511751  0.44376763  0.46340413    -0.39600
H231        H  0.24796394  0.45659341  0.52925330     0.13100
H232        H  0.26725143  0.00321797  0.55642581     0.12800
H233        H  0.22956359  0.04942011  0.50704819     0.12200
H234        H  0.20647561  0.50080110  0.48138507     0.12400
H235        H  0.25102694  0.07417621  0.54911540     0.15200
H236        H  0.30458617  0.05689594  0.56258076     0.14000
H237        H  0.21136218  0.42345561  0.49616194     0.11600
H238        H  0.20847319  0.46548534  0.45384873     0.13700
C239        C  0.03605801  0.26114453  0.50762359     0.19700
C240        C  0.03457003  0.27531791  0.53010598    -0.18400
C241        C  0.50838481  0.25903020  0.54526560    -0.10600
C242        C  0.48341764  0.22770988  0.53941486     0.22000
C243        C  0.48591387  0.21289611  0.51754243    -0.20000
C244        C  0.01097644  0.22983489  0.50180797    -0.10800
C245        C  0.45468754  0.21008618  0.55585033    -0.15000
C246        C  0.44230757  0.22577956  0.56927767    -0.28800
C247        C  0.06468451  0.27927631  0.49121823    -0.03100
C248        C  0.06359346  0.27570886  0.46647672    -0.39600
H249        H  0.05385841  0.29913278  0.53522207     0.13100
H250        H  0.50785191  0.27077468  0.56236433     0.12800
H251        H  0.46726482  0.18859027  0.51282336     0.12200
H252        H  0.01186884  0.21770372  0.48502791     0.12400
H253        H  0.44222415  0.18369885  0.55564415     0.15200
H254        H  0.45312690  0.25201030  0.56792023     0.14000
H255        H  0.08714736  0.29721149  0.49979345     0.11600
H256        H  0.04087386  0.25918394  0.45749271     0.13700
C257        C  0.25406467  0.23463462  0.53461920     0.19700
C258        C  0.24217122  0.22329616  0.51083552    -0.18400
C259        C  0.23187795  0.24067833  0.49558232    -0.10600
C260        C  0.23284449  0.26950608  0.50408535     0.22000
C261        C  0.24381806  0.28025907  0.52814784    -0.20000
C262        C  0.25459861  0.26318228  0.54322932    -0.10800
C263        C  0.22097670  0.28791331  0.48882884    -0.15000
C264        C  0.22288802  0.28901123  0.46401186    -0.28800
C265        C  0.26504203  0.21594472  0.55037923    -0.03100
C266        C  0.29042199  0.23067334  0.56584571    -0.39600
H267        H  0.24111329  0.20109175  0.50398406     0.13100
H268        H  0.22250719  0.23111675  0.47741734     0.12800
H269        H  0.24420360  0.30205316  0.53524657     0.12200
H270        H  0.26276662  0.27199724  0.56177134     0.12400
H271        H  0.21088646  0.30146805  0.49842301     0.15200
H272        H  0.23451709  0.27699760  0.45432325     0.14000
H273        H  0.25317909  0.18971515  0.54823405     0.11600
H274        H  0.30408818  0.25701961  0.56642523     0.13700
C275        C  0.42722761  0.04696982  0.72406250     0.19700
C276        C  0.40763243  0.05954537  0.73356868    -0.18400
C277        C  0.39581845  0.07540678  0.71807548    -0.10600
C278        C  0.40342605  0.07896744  0.69264644     0.22000
C279        C  0.42186099  0.06516120  0.68303025    -0.20000
C280        C  0.43360304  0.04929968  0.69848297    -0.10800
C281        C  0.39205714  0.09605150  0.67536157    -0.15000
C282        C  0.38232213  0.11745791  0.68266658    -0.28800
C283        C  0.44050093  0.03153404  0.74123545    -0.03100
C284        C  0.46808194  0.03025221  0.73645149    -0.39600
H285        H  0.40182225  0.05748671  0.75311267     0.13100
H286        H  0.38055767  0.08445910  0.72613731     0.12800
H287        H  0.42744138  0.06686760  0.66345896     0.12200
H288        H  0.44734187  0.03865797  0.69017886     0.12400
H289        H  0.39239182  0.09128442  0.65571549     0.15200
H290        H  0.38244823  0.12329200  0.70208261     0.14000
H291        H  0.43123429  0.52399445  0.75829577     0.11600
H292        H  0.48085803  0.03945023  0.71910644     0.13700
C293        C  0.11607506  0.04490225  0.71391038     0.19700
C294        C  0.14707987  0.05031386  0.72101950    -0.18400
C295        C  0.17373362  0.06611749  0.70519908    -0.10600
C296        C  0.17002393  0.07703601  0.68179341     0.22000
C297        C  0.13876442  0.07019735  0.67411081    -0.20000
C298        C  0.11200246  0.05436266  0.68998160    -0.10800
C299        C  0.19833209  0.09520104  0.66509593    -0.15000
C300        C  0.22843229  0.11419311  0.67398246    -0.28800
C301        C  0.08900558  0.02946698  0.73210366    -0.03100
C302        C  0.06115549  0.03109206  0.73066484    -0.39600
H303        H  0.15082713  0.04270763  0.73909190     0.13100
H304        H  0.19718100  0.06956475  0.71135860     0.12800
H305        H  0.13514251  0.07766366  0.65594101     0.12200
H306        H  0.08836106  0.04956409  0.68329151     0.12400
H307        H  0.19420551  0.09356540  0.64525227     0.15200
H308        H  0.23223089  0.11717942  0.69382207     0.14000
H309        H  0.09265367  0.01728560  0.74791300     0.11600
H310        H  0.05624562  0.04233873  0.71493269     0.13700
C311        C  0.41583911  0.33376255  0.68602536     0.19700
C312        C  0.44934986  0.35485622  0.68824921    -0.18400
C313        C  0.46065480  0.38384560  0.70149939    -0.10600
C314        C  0.43853521  0.39266521  0.71203330     0.22000
C315        C  0.40499960  0.37198949  0.70930548    -0.20000
C316        C  0.39367703  0.34245772  0.69672430    -0.10800
C317        C  0.45026777  0.42382901  0.72527055    -0.15000
C318        C  0.47349121  0.43312932  0.74258824    -0.28800
C319        C  0.40449322  0.30376046  0.67123471    -0.03100
C320        C  0.37998711  0.27511482  0.67867667    -0.39600
H321        H  0.46677696  0.34874711  0.67985821     0.13100
H322        H  0.48664916  0.39974964  0.70305418     0.12800
H323        H  0.38761416  0.37856994  0.71713513     0.12200
H324        H  0.36768558  0.32684257  0.69477879     0.12400
H325        H  0.43849285  0.43855470  0.72171991     0.15200
H326        H  0.48308793  0.41702078  0.74791696     0.14000
H327        H  0.41754285  0.30506168  0.65425192     0.11600
H328        H  0.36870436  0.27318346  0.69662828     0.13700
C329        C  0.02743892  0.29077651  0.02784844     0.19700
C330        C  0.49826825  0.29488878  0.02779185    -0.18400
C331        C  0.47765338  0.28369811  0.00722986    -0.10600
C332        C  0.48227977  0.26489066  0.98882017     0.22000
C333        C  0.01325280  0.26429260  0.98753001    -0.20000
C334        C  0.03397817  0.27529843  0.00797039    -0.10800
C335        C  0.45934507  0.24985440  0.96779366    -0.15000
C336        C  0.42818338  0.24342485  0.96897460    -0.28800
C337        C  0.04848964  0.30130613  0.05016900    -0.03100
C338        C  0.08068558  0.31258125  0.04820183    -0.39600
H339        H  0.49405794  0.30898801  0.04180446     0.13100
H340        H  0.45828528  0.28998890  0.00591797     0.12800
H341        H  0.01843416  0.25169204  0.97284788     0.12200
H342        H  0.05453951  0.27067939  0.00851517     0.12400
H343        H  0.46721523  0.24066966  0.95219212     0.15200
H344        H  0.41939827  0.25039852  0.98524746     0.14000
H345        H  0.03747011  0.29961945  0.06818687     0.11600
H346        H  0.09144265  0.31579019  0.02989575     0.13700
C347        C  0.26453999  0.48792718  0.04247720     0.19700
C348        C  0.26569308  0.01604266  0.04390192    -0.18400
C349        C  0.27477614  0.03718805  0.02374267    -0.10600
C350        C  0.28744297  0.03063301  0.00210229     0.22000
C351        C  0.29070597  0.50486123  0.00214019    -0.20000
C352        C  0.28149740  0.48380165  0.02238043    -0.10800
C353        C  0.29565069  0.05190815  0.98003174    -0.15000
C354        C  0.30692094  0.08396345  0.98233376    -0.28800
C355        C  0.25080491  0.46390279  0.06291145    -0.03100
C356        C  0.24221173  0.43250810  0.05942838    -0.39600
H357        H  0.25505973  0.02113002  0.06000591     0.13100
H358        H  0.27071078  0.05800725  0.02484817     0.12800
H359        H  0.30322298  0.50088996  0.98672999     0.12200
H360        H  0.28761586  0.46430302  0.02208402     0.12400
H361        H  0.29270033  0.04114961  0.96177380     0.15200
H362        H  0.31175062  0.09477046  0.00066374     0.14000
H363        H  0.24403380  0.47126023  0.08005685     0.11600
H364        H  0.24656774  0.42447054  0.04168069     0.13700
C365        C  0.20758649  0.23863811  0.02937036     0.19700
C366        C  0.20393082  0.24023480  0.00370169    -0.18400
C367        C  0.21680170  0.22634984  0.98725896    -0.10600
C368        C  0.23371196  0.21055733  0.99624360     0.22000
C369        C  0.23593712  0.20754284  0.02189933    -0.20000
C370        C  0.22311020  0.22143686  0.03833266    -0.10800
C371        C  0.25059752  0.19795211  0.97992827    -0.15000
C372        C  0.25758826  0.20562506  0.95585103    -0.28800
C373        C  0.19614027  0.25658104  0.04568791    -0.03100
C374        C  0.20081696  0.26022595  0.07034388    -0.39600
H375        H  0.19170320  0.25296856  0.99626970     0.13100
H376        H  0.21365849  0.22843969  0.96767732     0.12800
H377        H  0.24852207  0.19515628  0.02931925     0.12200
H378        H  0.22607507  0.21896677  0.05787035     0.12400
H379        H  0.25986247  0.18324403  0.98882109     0.15200
H380        H  0.24894689  0.22017111  0.94607733     0.14000
H381        H  0.18442071  0.26887732  0.03653068     0.11600
H382        H  0.21196991  0.24824830  0.08050676     0.13700
C383        C  0.43323191  0.10118062  0.84845052     0.19700
C384        C  0.45802452  0.11395432  0.83057896    -0.18400
C385        C  0.47004512  0.09450955  0.81996354    -0.10600
C386        C  0.45765760  0.06182161  0.82719806     0.22000
C387        C  0.43395506  0.04954980  0.84587768    -0.20000
C388        C  0.42178836  0.06889158  0.85634279    -0.10800
C389        C  0.46854343  0.03982176  0.81546478    -0.15000
C390        C  0.47812458  0.04315050  0.79173021    -0.28800
C391        C  0.42019077  0.12206141  0.85901998    -0.03100
C392        C  0.38922607  0.10950337  0.86698749    -0.39600
H393        H  0.46776497  0.13890771  0.82453583     0.13100
H394        H  0.48916004  0.10523350  0.80623542     0.12800
H395        H  0.42436238  0.02468355  0.85209155     0.12200
H396        H  0.40363472  0.05853097  0.87079967     0.12400
H397        H  0.46569569  0.01875490  0.82578041     0.15200
H398        H  0.47849801  0.06277349  0.78091202     0.13600
H399        H  0.43606981  0.14815078  0.85975895     0.11600
H400        H  0.37295710  0.08364586  0.86490178     0.13700
C401        C  0.11161078  0.05221218  0.81992370     0.19700
C402        C  0.12315255  0.03668608  0.83615162    -0.18400
C403        C  0.15435455  0.05361154  0.84650006    -0.10600
C404        C  0.17460983  0.08666614  0.84095421     0.22000
C405        C  0.16266714  0.10230313  0.82518333    -0.20000
C406        C  0.13162324  0.08536800  0.81475795    -0.10800
C407        C  0.20744814  0.10637335  0.85215021    -0.15000
C408        C  0.22501081  0.09410769  0.86326180    -0.28800
C409        C  0.07857223  0.03336320  0.80891275    -0.03100
C410        C  0.07089920  0.04039276  0.78660814    -0.39600
H411        H  0.10804836  0.01127672  0.84069646     0.13100
H412        H  0.16208757  0.04081148  0.85913431     0.12800
H413        H  0.17742474  0.12786539  0.82093741     0.12200
H414        H  0.12321878  0.09849378  0.80301700     0.12400
H415        H  0.21768404  0.13260075  0.85114551     0.15200
H416        H  0.21603987  0.06810185  0.86400559     0.14000
H417        H  0.06091475  0.01169991  0.81853674     0.11600
H418        H  0.08934234  0.06029890  0.77593310     0.13700
C419        C  0.41842587  0.32119150  0.83523220     0.19700
C420        C  0.44719122  0.34891475  0.84241599    -0.18400
C421        C  0.45792064  0.37864867  0.83008862    -0.10600
C422        C  0.44009483  0.38129865  0.81007873     0.22000
C423        C  0.41159370  0.35340842  0.80271777    -0.20000
C424        C  0.40093416  0.32376999  0.81499041    -0.10800
C425        C  0.45049825  0.41177840  0.79549975    -0.15000
C426        C  0.47817501  0.44013073  0.79884531    -0.28800
C427        C  0.40754285  0.29014640  0.84917562    -0.03100
C428        C  0.37630168  0.26633762  0.84992352    -0.39600
H429        H  0.46131683  0.34764339  0.85781386     0.13100
H430        H  0.48014403  0.39921929  0.83634914     0.12800
H431        H  0.39758199  0.35441618  0.78712884     0.12200
H432        H  0.37927117  0.30291249  0.80822680     0.12400
H433        H  0.43450400  0.41042848  0.78049240     0.15200
H434        H  0.49368695  0.44368300  0.81465929     0.14000
H435        H  0.42540019  0.28782645  0.86061696     0.11600
H436        H  0.35769960  0.26932312  0.84011422     0.13700
O437        O  0.27404050  0.60350729  0.88611816    -0.77500
C438        C  0.37772708  0.62846588  0.87919666     0.83600
O439        O  0.32185374  0.63644384  0.96672124    -0.78600
O440        O  0.41379451  0.71610700  0.92923870    -0.80100
O441        O  0.33686175  0.72236684  0.87029471    -0.79800
O442        O  0.27049141  0.64708507  0.87392966    -0.78500
Zn443      Zn  0.31635087  0.62126562  0.90581009     1.55700
O444        O  0.38748645  0.72946020  0.87462648    -0.79900
Cd445      Cd  0.30785755  0.68424863  0.89336989     1.59700
Cd446      Cd  0.33443086  0.67657924  0.94589478     1.59600
O447        O  0.28450004  0.70041311  0.91829533    -0.79900
O448        O  0.33534342  0.66802797  0.91033491    -1.90400
Cd449      Cd  0.38230342  0.69249473  0.89915401     1.59900
O450        O  0.30145362  0.69133140  0.95428893    -0.79800
O451        O  0.39464013  0.65926792  0.88213320    -0.78500
C452        C  0.31108290  0.60679830  0.96128794     0.84100
C453        C  0.25947596  0.61639823  0.87437142     0.83700
O454        O  0.34849135  0.61250923  0.88700794    -0.77400
C455        C  0.36728793  0.73776451  0.86552270     0.84500
O456        O  0.30723869  0.59701335  0.93888799    -0.77500
C457        C  0.28413602  0.70021659  0.94184970     0.84700
C458        C  0.40720063  0.72227044  0.95094200     0.85000
O459        O  0.37818429  0.71074447  0.95871743    -0.79900
O460        O  0.39962118  0.72574035  0.59160210    -0.77500
C461        C  0.30252275  0.71342317  0.58205063     0.83600
O462        O  0.35277484  0.71834910  0.67371534    -0.78600
O463        O  0.25617848  0.63129359  0.63568729    -0.80100
O464        O  0.33098060  0.60944547  0.58934602    -0.79800
O465        O  0.40139938  0.67912893  0.59025108    -0.78500
Zn466      Zn  0.36012819  0.71760547  0.61162694     1.55700
O467        O  0.28485265  0.61206337  0.58484714    -0.79900
Cd468      Cd  0.36051041  0.64889811  0.61130904     1.59700
Cd469      Cd  0.33354868  0.67212188  0.65894280     1.59600
O470        O  0.37442745  0.63151107  0.64187228    -0.79900
O471        O  0.33649017  0.67258938  0.62209921    -1.90400
Cd472      Cd  0.29128860  0.65045675  0.60767051     1.59900
O473        O  0.35743287  0.64908411  0.67420795    -0.79800
O474        O  0.28380326  0.68337164  0.58654478    -0.78500
C475        C  0.36923147  0.74599474  0.66358462     0.84100
C476        C  0.41293390  0.70900418  0.58442668     0.83700
O477        O  0.33132500  0.72862344  0.59063727    -0.77400
C478        C  0.30256775  0.59878576  0.58022206     0.84500
O479        O  0.37487963  0.74889260  0.64041601    -0.77500
C480        C  0.37139632  0.63384689  0.66516060     0.84700
C481        C  0.25857106  0.63208193  0.65924115     0.85000
O482        O  0.28588322  0.64676762  0.67020796    -0.79900
C483        C  0.00608810  0.00455092  0.78894522     0.46500
H484        H  0.00897308  0.00785012  0.80927810    -0.02500
C485        C  0.99947959  0.99725525  0.74119629     0.46600
H486        H  0.99683931  0.99412927  0.72079012    -0.02500
C487        C  0.03991491  0.51887500  0.77504283    -0.16200
C488        C  0.48828110  0.96850441  0.78169624    -0.16000
C489        C  0.48836706  0.52014387  0.77787368    -0.16300
C490        C  0.03559132  0.51508405  0.74985713    -0.16300
C491        C  0.48516551  0.96505775  0.75644809    -0.15900
C492        C  0.48447171  0.51580258  0.75268793    -0.16200
O493        O  0.22572967  0.90177451  0.37798805    -0.77500
C494        C  0.11983515  0.86505626  0.36654616     0.83600
O495        O  0.18628739  0.88681727  0.45899540    -0.78600
O496        O  0.09044488  0.79071980  0.42533137    -0.80100
O497        O  0.17372603  0.78424965  0.37206820    -0.79800
O498        O  0.23775049  0.86116605  0.37786421    -0.78500
Zn499      Zn  0.18244706  0.88462119  0.39620347     1.55700
O500        O  0.12156580  0.77180592  0.37619381    -0.79900
Cd501      Cd  0.19781674  0.82405980  0.39548937     1.59700
Cd502      Cd  0.16795318  0.84011904  0.44506885     1.59600
O503        O  0.21478601  0.80759810  0.42459567    -0.79900
O504        O  0.16796075  0.84041171  0.40801623    -1.90400
Cd505      Cd  0.12289040  0.81036035  0.39603447     1.59900
O506        O  0.19528480  0.81945689  0.45848711    -0.79800
O507        O  0.10691913  0.83543602  0.37332226    -0.78500
C508        C  0.19313772  0.91361502  0.44837281     0.84100
C509        C  0.24487031  0.89036768  0.37265323     0.83700
O510        O  0.14825019  0.88606782  0.37369191    -0.77400
C511        C  0.14354199  0.76559862  0.36785647     0.84500
O512        O  0.19107210  0.91555182  0.42499278    -0.77500
C513        C  0.21154327  0.80741860  0.44800113     0.84700
C514        C  0.09370449  0.79401487  0.44871793     0.85000
O515        O  0.12117160  0.81227595  0.45877285    -0.79900
O516        O  0.16989286  0.89894539  0.14767889    -0.77500
C517        C  0.23852784  0.86368457  0.16147806     0.83600
O518        O  0.20845567  0.87762859  0.06858051    -0.78600
O519        O  0.19615483  0.78382044  0.10916340    -0.80100
O520        O  0.09998078  0.77937195  0.14477747    -0.79800
O521        O  0.11804993  0.85959659  0.14651432    -0.78500
Zn522      Zn  0.19660480  0.88263212  0.12880258     1.55700
O523        O  0.14225461  0.77115517  0.15324012    -0.79900
Cd524      Cd  0.12069082  0.82356462  0.12528968     1.59700
Cd525      Cd  0.17366156  0.83524089  0.08285791     1.59600
O526        O  0.09439324  0.81667788  0.09199038    -0.79900
O527        O  0.16810475  0.83782131  0.11869420    -1.90400
Cd528      Cd  0.18149719  0.80758311  0.13482333     1.59900
O529        O  0.13248128  0.82458220  0.06397767    -0.79800
O530        O  0.22048648  0.83324200  0.15834305    -0.78500
C531        C  0.22267438  0.90635069  0.07692970     0.84100
C532        C  0.13992170  0.88781683  0.15336336     0.83700
O533        O  0.23229000  0.88456671  0.15118020    -0.77400
C534        C  0.11191617  0.76249743  0.15446772     0.84500
O535        O  0.21928770  0.91275795  0.09936058    -0.77500
C536        C  0.10360867  0.81788046  0.06953686     0.84700
C537        C  0.19511983  0.78340401  0.08562487     0.85000
O538        O  0.18608390  0.80087238  0.07358413    -0.79900
C539        C  0.99535259  0.50427729  0.28755156     0.46500
H540        H  0.99360305  0.50120828  0.30796071    -0.02500
C541        C  0.99986790  0.51170539  0.23976534     0.46600
H542        H  0.00169212  0.51466433  0.21935499    -0.02500
C543        C  0.01552079  0.98992519  0.27484535    -0.16200
C544        C  0.46334883  0.98969852  0.27385872    -0.16000
C545        C  0.01265476  0.53992058  0.27939614    -0.16300
C546        C  0.01755784  0.99306904  0.24938064    -0.16300
C547        C  0.46587298  0.99340492  0.24860671    -0.15900
C548        C  0.01502936  0.54409138  0.25416887    -0.16200
C549        C  0.08022676  0.67934536  0.18760748     0.19700
C550        C  0.09552989  0.66634142  0.20268390    -0.18400
C551        C  0.07788098  0.63545813  0.21307929    -0.10600
C552        C  0.04431641  0.61653588  0.20853628     0.22000
C553        C  0.02900804  0.62910318  0.19300312    -0.20000
C554        C  0.04668462  0.66031186  0.18274885    -0.10800
C555        C  0.02534613  0.58348545  0.21948881    -0.15000
C556        C  0.03202852  0.57675031  0.24224993    -0.28800
C557        C  0.10083401  0.71185801  0.17625737    -0.03100
C558        C  0.08968016  0.73133104  0.16683925    -0.39600
H559        H  0.12140966  0.68014109  0.20640038     0.13100
H560        H  0.09074311  0.62618750  0.22430308     0.12800
H561        H  0.00327622  0.61482852  0.18894440     0.12200
H562        H  0.03417344  0.66903291  0.17065146     0.12400
H563        H  0.00491470  0.56508350  0.20919541     0.15200
H564        H  0.05042662  0.59659371  0.25285322     0.14000
H565        H  0.12690271  0.72028911  0.17587105     0.11600
H566        H  0.06393951  0.72415719  0.16762831     0.13700
C567        C  0.38420160  0.94104768  0.21489439     0.19700
C568        C  0.36479973  0.90766242  0.21059543    -0.18400
C569        C  0.33491642  0.89574367  0.19840167    -0.10600
C570        C  0.32346691  0.91703303  0.19043069     0.22000
C571        C  0.34305065  0.95047492  0.19446444    -0.20000
C572        C  0.37294280  0.96239991  0.20668609    -0.10800
C573        C  0.29201563  0.90563723  0.17707371    -0.15000
C574        C  0.26796637  0.87459293  0.17693131    -0.28800
C575        C  0.41478517  0.95212691  0.22932851    -0.03100
C576        C  0.43785282  0.98331259  0.23158019    -0.39600
H577        H  0.37279251  0.89064435  0.21673534     0.13100
H578        H  0.32128126  0.86991888  0.19505133     0.12800
H579        H  0.33497968  0.96746610  0.18841169     0.12200
H580        H  0.38659415  0.98822264  0.21006436     0.12400
H581        H  0.28867046  0.92367402  0.16672309     0.15200
H582        H  0.27023646  0.85613612  0.18745971     0.14000
H583        H  0.41832040  0.93371538  0.23895503     0.11600
H584        H  0.43721868  0.00213181  0.22037842     0.13700
C585        C  0.09063993  0.92082167  0.19022177     0.19700
C586        C  0.05793128  0.91385288  0.19002167    -0.18400
C587        C  0.04751480  0.93219422  0.20409971    -0.10600
C588        C  0.06968517  0.95822606  0.21879527     0.22000
C589        C  0.10232083  0.96487220  0.21935306    -0.20000
C590        C  0.11276130  0.94647428  0.20524465    -0.10800
C591        C  0.05915335  0.97730994  0.23499374    -0.15000
C592        C  0.03079464  0.97772395  0.23194150    -0.28800
C593        C  0.10017645  0.89995878  0.17524032    -0.03100
C594        C  0.13101940  0.90879901  0.16842111    -0.39600
H595        H  0.04023170  0.89393934  0.17899678     0.13100
H596        H  0.02187675  0.92517498  0.20381900     0.12800
H597        H  0.11978393  0.98423292  0.23091486     0.12200
H598        H  0.13796232  0.95205356  0.20668535     0.12400
H599        H  0.07371122  0.48961697  0.25097998     0.15200
H600        H  0.01656306  0.96740429  0.21536229     0.14000
H601        H  0.08078435  0.87670105  0.16894680     0.11600
H602        H  0.15064431  0.93245472  0.17354943     0.13700
C603        C  0.39260073  0.95945584  0.32117603     0.19700
C604        C  0.37859384  0.97472526  0.33531104    -0.18400
C605        C  0.34760570  0.95651931  0.34594475    -0.10600
C606        C  0.33029592  0.92254673  0.34289509     0.22000
C607        C  0.34483910  0.90732527  0.32938964    -0.20000
C608        C  0.37549781  0.92547950  0.31858354    -0.10800
C609        C  0.29790692  0.90174816  0.35443855    -0.15000
C610        C  0.27646704  0.91208600  0.36061791    -0.28800
C611        C  0.42501417  0.97908634  0.30927955    -0.03100
C612        C  0.43167237  0.97104922  0.28695051    -0.39600
H613        H  0.39147202  0.00081510  0.33785091     0.13100
H614        H  0.33764441  0.96902467  0.35687149     0.12800
H615        H  0.33234583  0.88118781  0.32710621     0.12200
H616        H  0.38597349  0.91277708  0.30846621     0.12400
H617        H  0.29107712  0.87635558  0.35733910     0.15200
H618        H  0.28209069  0.93697278  0.35694711     0.14000
H619        H  0.44273305  0.00132603  0.31819817     0.11600
H620        H  0.41247218  0.95047880  0.27751680     0.13700
C621        C  0.06801965  0.61954727  0.31440312     0.19700
C622        C  0.09840381  0.64583600  0.30813552    -0.18400
C623        C  0.11029584  0.67567652  0.32039061    -0.10600
C624        C  0.09212184  0.67981725  0.33949093     0.22000
C625        C  0.06200630  0.65333716  0.34604769    -0.20000
C626        C  0.05011684  0.62350625  0.33379370    -0.10800
C627        C  0.10294860  0.71137470  0.35252838    -0.15000
C628        C  0.13400615  0.73558858  0.35329105    -0.28800
C629        C  0.05571147  0.58904899  0.29967779    -0.03100
C630        C  0.02401924  0.56683281  0.29766285    -0.39600
H631        H  0.11267192  0.64354452  0.29321601     0.13100
H632        H  0.13326514  0.69552480  0.31434969     0.12800
H633        H  0.04753684  0.65574333  0.36075498     0.12200
H634        H  0.02699156  0.60375329  0.33966353     0.12400
H635        H  0.08453294  0.71419815  0.36291750     0.15200
H636        H  0.15330330  0.73277046  0.34438062     0.14000
H637        H  0.07321001  0.58602421  0.28821570     0.11600
H638        H  0.00556601  0.56838434  0.30883992     0.13700
C639        C  0.09090310  0.91625990  0.32824516     0.19700
C640        C  0.09776094  0.94879313  0.32956723    -0.18400
C641        C  0.07939491  0.95974680  0.31612216    -0.10600
C642        C  0.05352425  0.93829895  0.30094258     0.22000
C643        C  0.04739922  0.90601518  0.29893694    -0.20000
C644        C  0.06577837  0.89503342  0.31243297    -0.10800
C645        C  0.03373749  0.94918212  0.28597847    -0.15000
C646        C  0.03220111  0.97658037  0.29079285    -0.28800
C647        C  0.11083611  0.90574218  0.34334273    -0.03100
C648        C  0.10064416  0.87474113  0.35015458    -0.39600
H649        H  0.11735290  0.96583860  0.34119640     0.13100
H650        H  0.08605475  0.98517019  0.31742030     0.12800
H651        H  0.02825166  0.88917608  0.28689889     0.12200
H652        H  0.06046403  0.87007962  0.31010466     0.12400
H653        H  0.02004005  0.93417696  0.27045493     0.15200
H654        H  0.04249071  0.98973616  0.30780145     0.14000
H655        H  0.13407201  0.92455384  0.35025225     0.11600
H656        H  0.07682558  0.85577779  0.34452685     0.13700
C657        C  0.22511858  0.97479915  0.50273374     0.19700
C658        C  0.24199041  0.97596945  0.52448541    -0.18400
C659        C  0.25600521  0.50393348  0.53970204    -0.10600
C660        C  0.25084147  0.53037497  0.53403651     0.22000
C661        C  0.23271746  0.52861783  0.51287187    -0.20000
C662        C  0.22074440  0.00166722  0.49670904    -0.10800
C663        C  0.26304410  0.55947328  0.55030336    -0.15000
C664        C  0.29024804  0.56991628  0.56401504    -0.28800
C665        C  0.21181076  0.94476974  0.48740233    -0.03100
C666        C  0.20433700  0.94359790  0.46324108    -0.39600
H667        H  0.24531021  0.95547699  0.52978505     0.13100
H668        H  0.26889677  0.50388884  0.55628504     0.12800
H669        H  0.22796891  0.54844594  0.50830386     0.12200
H670        H  0.20706868  0.00142605  0.48053648     0.12400
H671        H  0.24998640  0.57339198  0.55022596     0.15200
H672        H  0.30471804  0.55749966  0.56286686     0.14000
H673        H  0.20961330  0.92296119  0.49616648     0.11600
H674        H  0.20801874  0.96540138  0.45365080     0.13700
C675        C  0.03696720  0.76073378  0.50557788     0.19700
C676        C  0.03546132  0.77477383  0.52811630    -0.18400
C677        C  0.50906732  0.75805311  0.54548374    -0.10600
C678        C  0.48355370  0.72725063  0.53912432     0.22000
C679        C  0.48569128  0.71290915  0.51688789    -0.20000
C680        C  0.01204226  0.72933843  0.49977241    -0.10800
C681        C  0.45464469  0.70968994  0.55542942    -0.15000
C682        C  0.44256346  0.72551587  0.56904176    -0.28800
C683        C  0.06556191  0.77906301  0.48919142    -0.03100
C684        C  0.06464590  0.77554611  0.46444651    -0.39600
H685        H  0.05464456  0.79864479  0.53323422     0.13100
H686        H  0.50876382  0.76938109  0.56285745     0.12800
H687        H  0.46660887  0.68898833  0.51176297     0.12200
H688        H  0.01297783  0.71731760  0.48294268     0.12400
H689        H  0.44185000  0.68330540  0.55499506     0.15200
H690        H  0.45376113  0.75179316  0.56787733     0.14000
H691        H  0.08792958  0.79709061  0.49782612     0.11600
H692        H  0.04202918  0.75895511  0.45536787     0.13700
C693        C  0.25634506  0.73671222  0.53441002     0.19700
C694        C  0.24632061  0.72639365  0.51011023    -0.18400
C695        C  0.23667301  0.74409816  0.49461586    -0.10600
C696        C  0.23640670  0.77227034  0.50334029     0.22000
C697        C  0.24570937  0.78210236  0.52785040    -0.20000
C698        C  0.25583942  0.76469084  0.54320267    -0.10800
C699        C  0.22453429  0.79063507  0.48794108    -0.15000
C700        C  0.22629484  0.79164167  0.46309282    -0.28800
C701        C  0.26653712  0.71756590  0.55043409    -0.03100
C702        C  0.29105215  0.73185040  0.56669294    -0.39600
H703        H  0.24614593  0.70467497  0.50306335     0.13100
H704        H  0.22861433  0.73514930  0.47610000     0.12800
H705        H  0.24514184  0.80335506  0.53513986     0.12200
H706        H  0.26263033  0.77274796  0.56208463     0.12400
H707        H  0.21412757  0.80394003  0.49748346     0.15200
H708        H  0.23821936  0.77995025  0.45337817     0.14000
H709        H  0.25510622  0.69145104  0.54768216     0.11600
H710        H  0.30444570  0.75817541  0.56785241     0.13700
C711        C  0.43064398  0.54896412  0.72371972     0.19700
C712        C  0.41144090  0.56187865  0.73340386    -0.18400
C713        C  0.39943881  0.57767169  0.71802540    -0.10600
C714        C  0.40644304  0.58085624  0.69249288     0.22000
C715        C  0.42464298  0.56685333  0.68272113    -0.20000
C716        C  0.43658786  0.55105018  0.69807989    -0.10800
C717        C  0.39462929  0.59767488  0.67526768    -0.15000
C718        C  0.38387330  0.61828048  0.68263882    -0.28800
C719        C  0.44373771  0.53324993  0.74080509    -0.03100
C720        C  0.47091723  0.53126992  0.73587759    -0.39600
H721        H  0.40599740  0.56005346  0.75300638     0.13100
H722        H  0.38445375  0.58689760  0.72629804     0.12800
H723        H  0.42980582  0.56827852  0.66308665     0.12200
H724        H  0.45007248  0.54020584  0.68966301     0.12400
H725        H  0.39533535  0.59326839  0.65559174     0.15200
H726        H  0.38358667  0.62380951  0.70207232     0.14000
H727        H  0.42791001  0.02205541  0.75866572     0.11600
H728        H  0.48356068  0.54013503  0.71844040     0.13700
C729        C  0.11702952  0.54380264  0.71473093     0.19700
C730        C  0.14837779  0.55113330  0.72252666    -0.18400
C731        C  0.17518275  0.56754362  0.70692625    -0.10600
C732        C  0.17124081  0.57710101  0.68305055     0.22000
C733        C  0.13972491  0.56846223  0.67479579    -0.20000
C734        C  0.11283827  0.55205143  0.69044573    -0.10800
C735        C  0.19947641  0.59541154  0.66631013    -0.15000
C736        C  0.22946236  0.61523716  0.67502677    -0.28800
C737        C  0.08968841  0.52781998  0.73260461    -0.03100
C738        C  0.06166970  0.52911120  0.73087405    -0.39600
H739        H  0.15223853  0.54455078  0.74094590     0.13100
H740        H  0.19888563  0.57240792  0.71360719     0.12800
H741        H  0.13595325  0.57486601  0.65629099     0.12200
H742        H  0.08897032  0.54577623  0.68332096     0.12400
H743        H  0.19538211  0.59297958  0.64646493     0.15200
H744        H  0.23333292  0.61891478  0.69481722     0.14000
H745        H  0.09344772  0.51594710  0.74856465     0.11600
H746        H  0.05681144  0.54013112  0.71495962     0.13700
C747        C  0.41722798  0.83376453  0.68707693     0.19700
C748        C  0.45066910  0.85532148  0.68910185    -0.18400
C749        C  0.46167258  0.88421238  0.70246145    -0.10600
C750        C  0.43928697  0.89243473  0.71332509     0.22000
C751        C  0.40583344  0.87122194  0.71089889    -0.20000
C752        C  0.39484165  0.84185028  0.69818025    -0.10800
C753        C  0.45050572  0.92362480  0.72642217    -0.15000
C754        C  0.47447753  0.93403765  0.74317446    -0.28800
C755        C  0.40611130  0.80390674  0.67210966    -0.03100
C756        C  0.38117360  0.77531473  0.67914342    -0.39600
H757        H  0.46827300  0.84969068  0.68042436     0.13100
H758        H  0.48760621  0.90053238  0.70377807     0.12800
H759        H  0.38823979  0.87732280  0.71899448     0.12200
H760        H  0.36888653  0.82591842  0.69641476     0.12400
H761        H  0.43759904  0.93738691  0.72335597     0.15200
H762        H  0.48532286  0.91889225  0.74817504     0.14000
H763        H  0.41952774  0.80526903  0.65531728     0.11600
H764        H  0.36950010  0.77325813  0.69694048     0.13700
C765        C  0.02880358  0.79170302  0.02743601     0.19700
C766        C  0.50304327  0.79814388  0.02570936    -0.18400
C767        C  0.48245918  0.78679238  0.00513763    -0.10600
C768        C  0.48814839  0.76933553  0.98621660     0.22000
C769        C  0.01338914  0.76269106  0.98812823    -0.20000
C770        C  0.03384314  0.77364832  0.00870398    -0.10800
C771        C  0.46471690  0.75340116  0.96561811    -0.15000
C772        C  0.43271150  0.74259591  0.96873819    -0.28800
C773        C  0.04968661  0.80235248  0.04988943    -0.03100
C774        C  0.08131357  0.81055798  0.04842568    -0.39600
H775        H  0.49781462  0.81090128  0.04023570     0.13100
H776        H  0.46200937  0.79153810  0.00425920     0.12800
H777        H  0.01734017  0.74811563  0.97437962     0.12200
H778        H  0.05294489  0.76697110  0.01027056     0.12400
H779        H  0.47332075  0.74743972  0.94871409     0.15200
H780        H  0.42392541  0.74656360  0.98632137     0.14000
H781        H  0.03910317  0.80350456  0.06751548     0.11600
H782        H  0.09185459  0.81131127  0.03034943     0.13700
C783        C  0.26863700  0.98773221  0.04279853     0.19700
C784        C  0.25862294  0.51451990  0.04240793    -0.18400
C785        C  0.26808549  0.53572916  0.02227075    -0.10600
C786        C  0.28405950  0.53094850  0.00184608     0.22000
C787        C  0.29134309  0.00286439  0.00124628    -0.20000
C788        C  0.28252197  0.98184474  0.02150747    -0.10800
C789        C  0.29341761  0.55252508  0.97991731    -0.15000
C790        C  0.30251415  0.58415692  0.98219154    -0.28800
C791        C  0.25472227  0.96377525  0.06325936    -0.03100
C792        C  0.24247821  0.93187863  0.05908071    -0.39600
H793        H  0.24558454  0.51823107  0.05757495     0.13100
H794        H  0.26192517  0.55522182  0.02242586     0.12800
H795        H  0.30126760  0.99745824  0.98487658     0.12200
H796        H  0.28634900  0.96090231  0.02026568     0.12400
H797        H  0.29388551  0.54253952  0.96186715     0.15200
H798        H  0.30423598  0.59443629  0.00049585     0.14000
H799        H  0.25095342  0.97198498  0.08117715     0.11600
H800        H  0.24412725  0.92339694  0.04072908     0.13700
C801        C  0.21397615  0.74357727  0.03016202     0.19700
C802        C  0.21241335  0.74766465  0.00455150    -0.18400
C803        C  0.22639845  0.73517302  0.98787814    -0.10600
C804        C  0.24219309  0.71812967  0.99656789     0.22000
C805        C  0.24265912  0.71299636  0.02212594    -0.20000
C806        C  0.22872241  0.72552178  0.03878947    -0.10800
C807        C  0.25973408  0.70632534  0.98017924    -0.15000
C808        C  0.26336556  0.71064439  0.95547056    -0.28800
C809        C  0.20096273  0.75970963  0.04685210    -0.03100
C810        C  0.20526027  0.76278917  0.07157426    -0.39600
H811        H  0.20097557  0.76129436  0.99738431     0.13100
H812        H  0.22512794  0.73952368  0.96841122     0.12800
H813        H  0.25443988  0.69971150  0.02933294     0.12200
H814        H  0.22996962  0.72115471  0.05825909     0.12400
H815        H  0.27141924  0.69404337  0.98940301     0.15200
H816        H  0.25175409  0.72206691  0.94516529     0.14000
H817        H  0.18850667  0.77139187  0.03787928     0.11600
H818        H  0.21734067  0.75156028  0.08152560     0.13700
C819        C  0.43544122  0.60089712  0.84824306     0.19700
C820        C  0.46121182  0.61418697  0.83115715    -0.18400
C821        C  0.47337729  0.59489352  0.82044894    -0.10600
C822        C  0.46018625  0.56184120  0.82682812     0.22000
C823        C  0.43546838  0.54898315  0.84472865    -0.20000
C824        C  0.42313649  0.56815614  0.85525810    -0.10800
C825        C  0.47118217  0.54000793  0.81494899    -0.15000
C826        C  0.48123421  0.54379106  0.79130988    -0.28800
C827        C  0.42243581  0.62178605  0.85896640    -0.03100
C828        C  0.39147932  0.60942252  0.86697896    -0.39600
H829        H  0.47164095  0.63946299  0.82579990     0.13100
H830        H  0.49319992  0.60596900  0.80730595     0.12800
H831        H  0.42521037  0.52378743  0.85026626     0.12200
H832        H  0.40421777  0.55727165  0.86911401     0.12400
H833        H  0.46775445  0.51853431  0.82497202     0.15200
H834        H  0.48215152  0.56383600  0.78071849     0.13600
H835        H  0.43844004  0.64784282  0.85983298     0.11600
H836        H  0.37501838  0.58362082  0.86487929     0.13700
C837        C  0.11449878  0.55131942  0.81878719     0.19700
C838        C  0.12618071  0.53651697  0.83559410    -0.18400
C839        C  0.15754302  0.55383273  0.84563947    -0.10600
C840        C  0.17789428  0.58654588  0.83914768     0.22000
C841        C  0.16597883  0.60141309  0.82262999    -0.20000
C842        C  0.13475412  0.58413010  0.81256690    -0.10800
C843        C  0.21065180  0.60678582  0.85032483    -0.15000
C844        C  0.22840980  0.59491705  0.86164895    -0.28800
C845        C  0.08103192  0.53216191  0.80841837    -0.03100
C846        C  0.07234192  0.53915615  0.78650105    -0.39600
H847        H  0.11098316  0.51142249  0.84095824     0.13100
H848        H  0.16529602  0.54168397  0.85887774     0.12800
H849        H  0.18083264  0.62670750  0.81762561     0.12200
H850        H  0.12642131  0.59688870  0.80038723     0.12400
H851        H  0.22055737  0.63296885  0.84921093     0.15200
H852        H  0.21974068  0.56895506  0.86236196     0.14000
H853        H  0.06378101  0.51047825  0.81824790     0.11600
H854        H  0.09020929  0.55915829  0.77558819     0.13700
C855        C  0.42015998  0.82174802  0.83503779     0.19700
C856        C  0.44843252  0.84975347  0.84252583    -0.18400
C857        C  0.45866213  0.87950889  0.83038856    -0.10600
C858        C  0.44080162  0.88187203  0.81029021     0.22000
C859        C  0.41275474  0.85372966  0.80266309    -0.20000
C860        C  0.40261284  0.82406613  0.81472954    -0.10800
C861        C  0.45077690  0.91232853  0.79586071    -0.15000
C862        C  0.47812896  0.94087543  0.79938235    -0.28800
C863        C  0.40974748  0.79070461  0.84879987    -0.03100
C864        C  0.37869061  0.76657684  0.84930622    -0.39600
H865        H  0.46254903  0.84867767  0.85800524     0.13100
H866        H  0.48053505  0.90031414  0.83686291     0.12800
H867        H  0.39874120  0.85455579  0.78700772     0.12200
H868        H  0.38132546  0.80300066  0.80774331     0.12400
H869        H  0.43479630  0.91079946  0.78078430     0.15200
H870        H  0.49361364  0.94462472  0.81524745     0.14000
H871        H  0.42766481  0.78868830  0.86038110     0.11600
H872        H  0.35998383  0.76928319  0.83940919     0.13700
O873        O  0.77224919  0.10321289  0.88637568    -0.77500
C874        C  0.87644381  0.12881381  0.87918790     0.83600
O875        O  0.82280653  0.13674793  0.96658265    -0.78600
O876        O  0.91176607  0.21692821  0.92860267    -0.80100
O877        O  0.83445943  0.22214758  0.86980366    -0.79800
O878        O  0.76833260  0.14676639  0.87459587    -0.78500
Zn879      Zn  0.81490185  0.12124015  0.90574511     1.55700
O880        O  0.88508691  0.22918746  0.87379705    -0.79900
Cd881      Cd  0.80603618  0.18426695  0.89342898     1.59700
Cd882      Cd  0.83273493  0.17633935  0.94570737     1.59600
O883        O  0.78307761  0.20046797  0.91868584    -0.79900
O884        O  0.83360681  0.16800304  0.91011880    -1.90400
Cd885      Cd  0.88037958  0.19272500  0.89866317     1.59900
O886        O  0.79827002  0.18905704  0.95459918    -0.79800
O887        O  0.89316337  0.15965254  0.88198529    -0.78500
C888        C  0.81198863  0.10707272  0.96118268     0.84100
C889        C  0.75740496  0.11608839  0.87495744     0.83700
O890        O  0.84719013  0.11275148  0.88693320    -0.77400
C891        C  0.86481775  0.23742518  0.86473777     0.84500
O892        O  0.80684958  0.09709313  0.93882786    -0.77500
C893        C  0.78167010  0.19888754  0.94221215     0.84700
C894        C  0.90506479  0.22369083  0.95006938     0.85000
O895        O  0.87602994  0.21219965  0.95780940    -0.79900
O896        O  0.89835452  0.22680264  0.59208770    -0.77500
C897        C  0.80133561  0.21404617  0.58193159     0.83600
O898        O  0.85095197  0.21851934  0.67401598    -0.78600
O899        O  0.75443956  0.13141566  0.63516557    -0.80100
O900        O  0.83018770  0.11053677  0.58907567    -0.79800
O901        O  0.90034229  0.18030925  0.59075338    -0.78500
Zn902      Zn  0.85857262  0.21818906  0.61183522     1.55700
O903        O  0.78404027  0.11307034  0.58440793    -0.79900
Cd904      Cd  0.85924820  0.14973881  0.61137445     1.59700
Cd905      Cd  0.83168094  0.17233334  0.65898174     1.59600
O906        O  0.87284240  0.13205518  0.64187141    -0.79900
O907        O  0.83497884  0.17313800  0.62214896    -1.90400
Cd908      Cd  0.78996129  0.15101907  0.60744781     1.59900
O909        O  0.85521960  0.14892273  0.67424814    -0.79800
O910        O  0.78264030  0.18397751  0.58634652    -0.78500
C911        C  0.86739341  0.24618138  0.66388365     0.84100
C912        C  0.91184914  0.21020258  0.58502216     0.83700
O913        O  0.83002628  0.22930785  0.59069792    -0.77400
C914        C  0.80187780  0.09993658  0.57978840     0.84500
O915        O  0.87295132  0.24909494  0.64071302    -0.77500
C916        C  0.86940672  0.13392589  0.66515344     0.84700
C917        C  0.75664201  0.13207103  0.65872962     0.85000
O918        O  0.78385785  0.14678675  0.66983070    -0.79900
C919        C  0.50716418  0.50368153  0.78937988     0.46500
H920        H  0.51041122  0.50698358  0.80969909    -0.02500
C921        C  0.49993496  0.49647919  0.74165195     0.46600
H922        H  0.49702916  0.49340977  0.72125693    -0.02500
C923        C  0.53818057  0.02019358  0.77578672    -0.16200
C924        C  0.98869909  0.46841196  0.78129569    -0.16000
C925        C  0.98665610  0.02022100  0.77722393    -0.16300
C926        C  0.53426555  0.01653409  0.75057043    -0.16300
C927        C  0.98515723  0.46498622  0.75606601    -0.15900
C928        C  0.98308076  0.01579412  0.75202720    -0.16200
O929        O  0.72478983  0.40095626  0.37721546    -0.77500
C930        C  0.61847410  0.36647155  0.36741729     0.83600
O931        O  0.68606263  0.38803007  0.45893827    -0.78600
O932        O  0.58907180  0.29185642  0.42645185    -0.80100
O933        O  0.67078716  0.28460463  0.37277990    -0.79800
O934        O  0.73583843  0.35972877  0.37806253    -0.78500
Zn935      Zn  0.68188532  0.38534151  0.39601013     1.55700
O936        O  0.61888613  0.27315263  0.37673542    -0.79900
Cd937      Cd  0.69558012  0.32392689  0.39607776     1.59700
Cd938      Cd  0.66680975  0.34112201  0.44548575     1.59600
O939        O  0.71200677  0.30686398  0.42501183    -0.79900
O940        O  0.66653862  0.34124611  0.40846300    -1.90400
Cd941      Cd  0.62112013  0.31166708  0.39699597     1.59900
O942        O  0.69367427  0.31999404  0.45891198    -0.79800
O943        O  0.60521474  0.33708293  0.37476670    -0.78500
C944        C  0.69387051  0.41494828  0.44813843     0.84100
C945        C  0.74343054  0.38882912  0.37219753     0.83700
O946        O  0.64739957  0.38723332  0.37379637    -0.77400
C947        C  0.64059091  0.26659311  0.36837355     0.84500
O948        O  0.69197581  0.41684125  0.42471970    -0.77500
C949        C  0.70916151  0.30713941  0.44841420     0.84700
C950        C  0.59263671  0.29516657  0.44980795     0.85000
O951        O  0.62020116  0.31359869  0.45965571    -0.79900
O952        O  0.66881187  0.39988301  0.14811898    -0.77500
C953        C  0.73762559  0.36352898  0.16065530     0.83600
O954        O  0.70633494  0.37860689  0.06821901    -0.78600
O955        O  0.69311344  0.28362441  0.10844444    -0.80100
O956        O  0.59843693  0.28063851  0.14545033    -0.79800
O957        O  0.61681903  0.36093933  0.14676912    -0.78500
Zn958      Zn  0.69528195  0.38325655  0.12891629     1.55700
O959        O  0.64047802  0.27178091  0.15309750    -0.79900
Cd960      Cd  0.61924638  0.32462251  0.12577791     1.59700
Cd961      Cd  0.67165116  0.33602499  0.08257850     1.59600
O962        O  0.59240767  0.31706422  0.09284876    -0.79900
O963        O  0.66648503  0.33856127  0.11859394    -1.90400
Cd964      Cd  0.67958323  0.30791736  0.13437681     1.59900
O965        O  0.62990659  0.32507118  0.06424432    -0.79800
O966        O  0.71931525  0.33315831  0.15735433    -0.78500
C967        C  0.72074181  0.40723394  0.07678617     0.84100
C968        C  0.63881983  0.38904860  0.15369561     0.83700
O969        O  0.73133400  0.38468308  0.15086240    -0.77400
C970        C  0.61024956  0.26345917  0.15475189     0.84500
O971        O  0.71763314  0.41336850  0.09935484    -0.77500
C972        C  0.60107301  0.31805921  0.07027893     0.84700
C973        C  0.69240995  0.28353425  0.08490682     0.85000
O974        O  0.68400155  0.30154368  0.07290155    -0.79900
C975        C  0.49660089  0.00584333  0.28706121     0.46500
H976        H  0.49481447  0.00306229  0.30749896    -0.02500
C977        C  0.50097202  0.01256748  0.23921519     0.46600
H978        H  0.50273289  0.01531880  0.21878040    -0.02500
C979        C  0.51435913  0.49117687  0.27545469    -0.16200
C980        C  0.96206974  0.48848314  0.27429295    -0.16000
C981        C  0.51343746  0.04129688  0.27859043    -0.16300
C982        C  0.51630374  0.49458928  0.25001764    -0.16300
C983        C  0.96468554  0.49255350  0.24905776    -0.15900
C984        C  0.51586067  0.04509052  0.25333858    -0.16200
C985        C  0.57838285  0.17938552  0.18647345     0.19700
C986        C  0.59432698  0.16483653  0.19899788    -0.18400
C987        C  0.57679603  0.13396899  0.20938868    -0.10600
C988        C  0.54268402  0.11662342  0.20743244     0.22000
C989        C  0.52660998  0.13059642  0.19432401    -0.20000
C990        C  0.54421503  0.16181492  0.18406417    -0.10800
C991        C  0.52392662  0.08394100  0.21890791    -0.15000
C992        C  0.53255040  0.07740132  0.24101552    -0.28800
C993        C  0.59887358  0.21203036  0.17528034    -0.03100
C994        C  0.58799033  0.23230246  0.16711332    -0.39600
H995        H  0.62061944  0.17745265  0.20078534     0.13100
H996        H  0.59005062  0.12351085  0.21871296     0.12800
H997        H  0.50036599  0.11750680  0.19230592     0.12200
H998        H  0.53103821  0.17171255  0.17398566     0.12400
H999        H  0.50216269  0.06575329  0.20971749     0.15200
H1000       H  0.55249753  0.09705554  0.25067193     0.14000
H1001       H  0.62476288  0.21983464  0.17378890     0.11600
H1002       H  0.56247049  0.22577178  0.16876008     0.13700
C1003       C  0.88337638  0.44003842  0.21463431     0.19700
C1004       C  0.86450381  0.40680552  0.20937828    -0.18400
C1005       C  0.83465727  0.39499066  0.19705867    -0.10600
C1006       C  0.82273792  0.41622497  0.18991737     0.22000
C1007       C  0.84180319  0.44949535  0.19491752    -0.20000
C1008       C  0.87160999  0.46129565  0.20725354    -0.10800
C1009       C  0.79127467  0.40507190  0.17655248    -0.15000
C1010       C  0.76738022  0.37396997  0.17574120    -0.28800
C1011       C  0.91388426  0.45108139  0.22924486    -0.03100
C1012       C  0.93670379  0.48235756  0.23189951    -0.39600
H1013       H  0.87286893  0.38983878  0.21487872     0.13100
H1014       H  0.82138644  0.36932546  0.19298783     0.12800
H1015       H  0.83336227  0.46645000  0.18956261     0.12200
H1016       H  0.88478720  0.48694013  0.21141993     0.12400
H1017       H  0.78766769  0.42343573  0.16693839     0.15200
H1018       H  0.76992164  0.35518193  0.18556300     0.14000
H1019       H  0.91750754  0.43261250  0.23869690     0.11600
H1020       H  0.93591583  0.50122921  0.22086146     0.13700
C1021       C  0.58939888  0.42255451  0.19011351     0.19700
C1022       C  0.55669293  0.41568692  0.18983963    -0.18400
C1023       C  0.54617966  0.43382774  0.20411786    -0.10600
C1024       C  0.56823316  0.45953757  0.21911514     0.22000
C1025       C  0.60084594  0.46609358  0.21972366    -0.20000
C1026       C  0.61138958  0.44793673  0.20540054    -0.10800
C1027       C  0.55763423  0.47839016  0.23555399    -0.15000
C1028       C  0.52956219  0.47938382  0.23238983    -0.28800
C1029       C  0.59901966  0.40178539  0.17500463    -0.03100
C1030       C  0.62997782  0.41017416  0.16872220    -0.39600
H1031       H  0.53905905  0.39598324  0.17861706     0.13100
H1032       H  0.52056628  0.42692793  0.20376226     0.12800
H1033       H  0.61822977  0.48521810  0.23149270     0.12200
H1034       H  0.63657191  0.45348271  0.20689837     0.12400
H1035       H  0.57601672  0.99264734  0.25007692     0.15200
H1036       H  0.51555511  0.46953487  0.21564068     0.14000
H1037       H  0.57956741  0.37885182  0.16825375     0.11600
H1038       H  0.64974353  0.43352053  0.17428681     0.13700
C1039       C  0.89161816  0.45591385  0.32196738     0.19700
C1040       C  0.87796667  0.47097487  0.33668880    -0.18400
C1041       C  0.84679038  0.45282376  0.34696296    -0.10600
C1042       C  0.82889784  0.41906388  0.34301484     0.22000
C1043       C  0.84315100  0.40390327  0.32905635    -0.20000
C1044       C  0.87402356  0.42208780  0.31849343    -0.10800
C1045       C  0.79615442  0.39859583  0.35414984    -0.15000
C1046       C  0.77510067  0.40961993  0.35991197    -0.28800
C1047       C  0.92413057  0.47572482  0.31030997    -0.03100
C1048       C  0.93030382  0.46940626  0.28725228    -0.39600
H1049       H  0.89124065  0.49692137  0.33990296     0.13100
H1050       H  0.83708224  0.46519467  0.35831559     0.12800
H1051       H  0.83021288  0.37787987  0.32613313     0.12200
H1052       H  0.88426062  0.40960028  0.30781054     0.12400
H1053       H  0.78886731  0.37312910  0.35723138     0.15200
H1054       H  0.78128464  0.43457911  0.35589528     0.14000
H1055       H  0.94225242  0.49694274  0.32005795     0.11600
H1056       H  0.91062909  0.44995468  0.27723350     0.13700
C1057       C  0.56532081  0.12178427  0.31355947     0.19700
C1058       C  0.59887707  0.14235820  0.31641961    -0.18400
C1059       C  0.61055154  0.17192353  0.32893272    -0.10600
C1060       C  0.58878646  0.18184454  0.33875897     0.22000
C1061       C  0.55518712  0.16102757  0.33618460    -0.20000
C1062       C  0.54351748  0.13144305  0.32366565    -0.10800
C1063       C  0.59971381  0.21319511  0.35210502    -0.15000
C1064       C  0.63089266  0.23693013  0.35353583    -0.28800
C1065       C  0.55443627  0.09187543  0.29839825    -0.03100
C1066       C  0.52338125  0.06822194  0.29659980    -0.39600
H1067       H  0.61623983  0.13563672  0.30875186     0.13100
H1068       H  0.63659996  0.18656434  0.33077341     0.12800
H1069       H  0.53780594  0.16789131  0.34359815     0.12200
H1070       H  0.51748041  0.11683976  0.32149406     0.12400
H1071       H  0.58104473  0.21677651  0.36141252     0.15200
H1072       H  0.65029357  0.23450068  0.34450867     0.14000
H1073       H  0.57282435  0.08956231  0.28754519     0.11600
H1074       H  0.50465692  0.06760309  0.30875846     0.13700
C1075       C  0.58911739  0.41695720  0.32849048     0.19700
C1076       C  0.59763247  0.44998264  0.32810914    -0.18400
C1077       C  0.57916947  0.46087743  0.31474035    -0.10600
C1078       C  0.55152118  0.43889671  0.30135498     0.22000
C1079       C  0.54357391  0.40600513  0.30103906    -0.20000
C1080       C  0.56205577  0.39506800  0.31446408    -0.10800
C1081       C  0.53171973  0.44985544  0.28653248    -0.15000
C1082       C  0.53119983  0.47780133  0.29113179    -0.28800
C1083       C  0.60938964  0.40666630  0.34345051    -0.03100
C1084       C  0.59894942  0.37601184  0.35125855    -0.39600
H1085       H  0.61865266  0.46749745  0.33831768     0.13100
H1086       H  0.58709887  0.48664540  0.31462151     0.12800
H1087       H  0.52292814  0.38867712  0.29039942     0.12200
H1088       H  0.55525024  0.36959110  0.31342923     0.12400
H1089       H  0.51723010  0.43456111  0.27138525     0.15200
H1090       H  0.54239329  0.49131445  0.30784634     0.14000
H1091       H  0.63326023  0.42543585  0.34932687     0.11600
H1092       H  0.57464756  0.35712907  0.34660860     0.13700
C1093       C  0.72680425  0.47591004  0.50248590     0.19700
C1094       C  0.74487784  0.47759965  0.52364880    -0.18400
C1095       C  0.75409592  0.00479477  0.54015029    -0.10600
C1096       C  0.75032827  0.03179672  0.53355502     0.22000
C1097       C  0.73315252  0.03027174  0.51190370    -0.20000
C1098       C  0.72062231  0.50187195  0.49733503    -0.10800
C1099       C  0.76285950  0.06119579  0.54944615    -0.15000
C1100       C  0.78968985  0.07119086  0.56351019    -0.28800
C1101       C  0.71374652  0.44608832  0.48699547    -0.03100
C1102       C  0.70578743  0.44503474  0.46295522    -0.39600
H1103       H  0.74955983  0.45774220  0.52827174     0.13100
H1104       H  0.76621219  0.00464537  0.55714238     0.12800
H1105       H  0.72946779  0.05055837  0.50664288     0.12200
H1106       H  0.70595046  0.50107091  0.48164310     0.12400
H1107       H  0.75027946  0.07556391  0.54891881     0.15200
H1108       H  0.80376365  0.05833335  0.56274816     0.14000
H1109       H  0.71190695  0.42431616  0.49556608     0.11600
H1110       H  0.70933478  0.46690549  0.45353233     0.13700
C1111       C  0.53662014  0.26122672  0.50691682     0.19700
C1112       C  0.53473686  0.27546803  0.52923727    -0.18400
C1113       C  0.00806229  0.25919458  0.54607541    -0.10600
C1114       C  0.98256859  0.22825879  0.54000327     0.22000
C1115       C  0.98462008  0.21350173  0.51796956    -0.20000
C1116       C  0.51213569  0.22955140  0.50131083    -0.10800
C1117       C  0.95375533  0.21090288  0.55638469    -0.15000
C1118       C  0.94159042  0.22679983  0.56979826    -0.28800
C1119       C  0.56508204  0.27971014  0.49047864    -0.03100
C1120       C  0.56384193  0.27645266  0.46571776    -0.39600
H1121       H  0.55359238  0.29958210  0.53417856     0.13100
H1122       H  0.00779027  0.27084475  0.56329484     0.12800
H1123       H  0.96553090  0.18947782  0.51307942     0.12200
H1124       H  0.51341590  0.21744087  0.48463297     0.12400
H1125       H  0.94101068  0.18451485  0.55610897     0.15200
H1126       H  0.95271387  0.25306426  0.56852224     0.14000
H1127       H  0.58750049  0.29772471  0.49905825     0.11600
H1128       H  0.54111702  0.25983933  0.45677122     0.13700
C1129       C  0.75477547  0.23683203  0.53433487     0.19700
C1130       C  0.74365636  0.22586551  0.51033275    -0.18400
C1131       C  0.73345867  0.24324835  0.49499222    -0.10600
C1132       C  0.73377899  0.27174387  0.50359215     0.22000
C1133       C  0.74413508  0.28221080  0.52781608    -0.20000
C1134       C  0.75478580  0.26511298  0.54300596    -0.10800
C1135       C  0.72172892  0.28999163  0.48830415    -0.15000
C1136       C  0.72352261  0.29101318  0.46347821    -0.28800
C1137       C  0.76536401  0.21793509  0.55025161    -0.03100
C1138       C  0.78993370  0.23238158  0.56644186    -0.39600
H1139       H  0.74303200  0.20388731  0.50340459     0.13100
H1140       H  0.72458535  0.23386947  0.47669731     0.12800
H1141       H  0.74404043  0.30374569  0.53499004     0.12200
H1142       H  0.76235710  0.27365872  0.56168957     0.12400
H1143       H  0.71146310  0.30339692  0.49788817     0.15200
H1144       H  0.73528842  0.27915374  0.45376953     0.14000
H1145       H  0.75396527  0.19180138  0.54761648     0.11600
H1146       H  0.80330868  0.25870930  0.56753322     0.13700
C1147       C  0.92949960  0.04911379  0.72272278     0.19700
C1148       C  0.90884335  0.06037943  0.73231672    -0.18400
C1149       C  0.89693663  0.07645237  0.71714332    -0.10600
C1150       C  0.90553723  0.08162819  0.69191942     0.22000
C1151       C  0.92536892  0.06945429  0.68220282    -0.20000
C1152       C  0.93719225  0.05334424  0.69734030    -0.10800
C1153       C  0.89368903  0.09859343  0.67489535    -0.15000
C1154       C  0.88168152  0.11806792  0.68253331    -0.28800
C1155       C  0.94223281  0.03288852  0.73966073    -0.03100
C1156       C  0.96960439  0.03113970  0.73502151    -0.39600
H1157       H  0.90209576  0.05696342  0.75169606     0.13100
H1158       H  0.88073266  0.08428049  0.72528526     0.12800
H1159       H  0.93184429  0.07249349  0.66277246     0.12200
H1160       H  0.95190823  0.04391507  0.68888115     0.12400
H1161       H  0.89553616  0.09535842  0.65515751     0.15200
H1162       H  0.88037157  0.12252517  0.70206573     0.14000
H1163       H  0.93153894  0.52498221  0.75885836     0.11600
H1164       H  0.98273646  0.04041362  0.71782610     0.13700
C1165       C  0.61542444  0.04596860  0.71490503     0.19700
C1166       C  0.64649601  0.05143109  0.72186023    -0.18400
C1167       C  0.67301315  0.06719478  0.70591256    -0.10600
C1168       C  0.66910807  0.07805306  0.68253454     0.22000
C1169       C  0.63778872  0.07123403  0.67503338    -0.20000
C1170       C  0.61116052  0.05542374  0.69102669    -0.10800
C1171       C  0.69727124  0.09613286  0.66567859    -0.15000
C1172       C  0.72746302  0.11506475  0.67441731    -0.28800
C1173       C  0.58847139  0.03037693  0.73316959    -0.03100
C1174       C  0.56041500  0.03160597  0.73178068    -0.39600
H1175       H  0.65039222  0.04384083  0.73989337     0.13100
H1176       H  0.69650159  0.07062656  0.71194671     0.12800
H1177       H  0.63401153  0.07866836  0.65689867     0.12200
H1178       H  0.58746909  0.05061210  0.68445088     0.12400
H1179       H  0.69296799  0.09449078  0.64585825     0.15200
H1180       H  0.73142162  0.11804979  0.69424215     0.14000
H1181       H  0.59232709  0.01827995  0.74894013     0.11600
H1182       H  0.55527662  0.04273183  0.71608540     0.13700
C1183       C  0.91601547  0.33410310  0.68671881     0.19700
C1184       C  0.94954638  0.35495995  0.68916440    -0.18400
C1185       C  0.96090329  0.38413520  0.70216472    -0.10600
C1186       C  0.93882537  0.39335239  0.71221213     0.22000
C1187       C  0.90529205  0.37289586  0.70927455    -0.20000
C1188       C  0.89390480  0.34319970  0.69694433    -0.10800
C1189       C  0.95059397  0.42463732  0.72525032    -0.15000
C1190       C  0.97343501  0.43378617  0.74284413    -0.28800
C1191       C  0.90459613  0.30398016  0.67209412    -0.03100
C1192       C  0.87954242  0.27559399  0.67935337    -0.39600
H1193       H  0.96693794  0.34853714  0.68112646     0.13100
H1194       H  0.98690843  0.39986205  0.70390690     0.12800
H1195       H  0.88795207  0.37977778  0.71674817     0.12200
H1196       H  0.86791101  0.32777603  0.69480365     0.12400
H1197       H  0.93906223  0.43951041  0.72139256     0.15200
H1198       H  0.98271858  0.41751386  0.74844895     0.14000
H1199       H  0.91790952  0.30499128  0.65532356     0.11600
H1200       H  0.86794627  0.27385895  0.69713606     0.13700
C1201       C  0.52439872  0.28837030  0.03004436     0.19700
C1202       C  0.00004040  0.29538672  0.02665845    -0.18400
C1203       C  0.97949671  0.28473483  0.00605457    -0.10600
C1204       C  0.98538405  0.26819569  0.98650368     0.22000
C1205       C  0.50867176  0.25874387  0.99104929    -0.20000
C1206       C  0.52938569  0.27015801  0.01144434    -0.10800
C1207       C  0.96216569  0.25297535  0.96561842    -0.15000
C1208       C  0.93049593  0.24446806  0.96772518    -0.28800
C1209       C  0.54608499  0.30017091  0.05196743    -0.03100
C1210       C  0.57798672  0.30993770  0.04965140    -0.39600
H1211       H  0.99465465  0.30744537  0.04163010     0.13100
H1212       H  0.95906857  0.28951220  0.00570158     0.12800
H1213       H  0.51276779  0.24426578  0.97729769     0.12200
H1214       H  0.54885477  0.26398023  0.01291269     0.12400
H1215       H  0.97044287  0.24543344  0.94930375     0.15200
H1216       H  0.92154360  0.24989900  0.98463137     0.14000
H1217       H  0.53587267  0.30084535  0.06988214     0.11600
H1218       H  0.58796877  0.31095082  0.03130222     0.13700
C1219       C  0.76486538  0.48888946  0.04280423     0.19700
C1220       C  0.76361239  0.01590432  0.04306272    -0.18400
C1221       C  0.77226266  0.03681325  0.02278572    -0.10600
C1222       C  0.78709141  0.03156248  0.00184038     0.22000
C1223       C  0.79087220  0.50583575  0.00241732    -0.20000
C1224       C  0.78145646  0.48456665  0.02255503    -0.10800
C1225       C  0.79546250  0.05290652  0.97979589    -0.15000
C1226       C  0.80488773  0.08463291  0.98209057    -0.28800
C1227       C  0.75095264  0.46473509  0.06313045    -0.03100
C1228       C  0.74059984  0.43307228  0.05912657    -0.39600
H1229       H  0.75139496  0.01998595  0.05862820     0.13100
H1230       H  0.76632229  0.05644950  0.02326233     0.12800
H1231       H  0.80310039  0.50171682  0.98687891     0.12200
H1232       H  0.78702815  0.46469111  0.02208567     0.12400
H1233       H  0.79466754  0.04262792  0.96162613     0.15200
H1234       H  0.80783939  0.09513410  0.00044027     0.14000
H1235       H  0.74550220  0.47240035  0.08068529     0.11600
H1236       H  0.74369455  0.42498182  0.04098842     0.13700
C1237       C  0.71161199  0.24319981  0.02977559     0.19700
C1238       C  0.70863942  0.24543420  0.00409058    -0.18400
C1239       C  0.72201584  0.23205720  0.98764572    -0.10600
C1240       C  0.73877122  0.21610102  0.99662361     0.22000
C1241       C  0.74060733  0.21272966  0.02229521    -0.20000
C1242       C  0.72726605  0.22613065  0.03873788    -0.10800
C1243       C  0.75582613  0.20361315  0.98032721    -0.15000
C1244       C  0.76072263  0.20912197  0.95579812    -0.28800
C1245       C  0.69931743  0.26040243  0.04610005    -0.03100
C1246       C  0.70215521  0.26253018  0.07094424    -0.39600
H1247       H  0.69646402  0.25821422  0.99664865     0.13100
H1248       H  0.71937455  0.23472893  0.96808076     0.12800
H1249       H  0.75315539  0.20031721  0.02973494     0.12200
H1250       H  0.72993610  0.22340406  0.05828572     0.12400
H1251       H  0.76649594  0.19032415  0.98948963     0.15200
H1252       H  0.75046695  0.22196690  0.94564817     0.14000
H1253       H  0.68835291  0.27333365  0.03681294     0.11600
H1254       H  0.71243594  0.24981688  0.08123222     0.13700
C1255       C  0.93405873  0.10176498  0.84747169     0.19700
C1256       C  0.95791087  0.11429990  0.82887556    -0.18400
C1257       C  0.96999011  0.09497781  0.81810390    -0.10600
C1258       C  0.95858966  0.06261327  0.82586844     0.22000
C1259       C  0.93582356  0.05061685  0.84521337    -0.20000
C1260       C  0.92362381  0.06984379  0.85585893    -0.10800
C1261       C  0.96954030  0.04062431  0.81411670    -0.15000
C1262       C  0.97907338  0.04376802  0.79036347    -0.28800
C1263       C  0.92095345  0.12255250  0.85818986    -0.03100
C1264       C  0.89048542  0.10983309  0.86730027    -0.39600
H1265       H  0.96688812  0.13898387  0.82240701     0.13100
H1266       H  0.98840340  0.10559793  0.80386181     0.12800
H1267       H  0.92700226  0.02603258  0.85185738     0.12200
H1268       H  0.90625381  0.05968137  0.87084081     0.12400
H1269       H  0.96681970  0.01966064  0.82451076     0.15200
H1270       H  0.97948340  0.06333515  0.77946509     0.13600
H1271       H  0.93627688  0.14874903  0.85791465     0.11600
H1272       H  0.87459624  0.08379101  0.86619509     0.13700
C1273       C  0.61182797  0.05182399  0.82018712     0.19700
C1274       C  0.62437380  0.03607962  0.83525756    -0.18400
C1275       C  0.65569249  0.05320862  0.84539932    -0.10600
C1276       C  0.67506689  0.08668436  0.84081611     0.22000
C1277       C  0.66215605  0.10246386  0.82614028    -0.20000
C1278       C  0.63100134  0.08533633  0.81592187    -0.10800
C1279       C  0.70791961  0.10662880  0.85196725    -0.15000
C1280       C  0.72612782  0.09466190  0.86246248    -0.28800
C1281       C  0.57863644  0.03284454  0.80942578    -0.03100
C1282       C  0.57026830  0.04060233  0.78767498    -0.39600
H1283       H  0.60995298  0.01036049  0.83907182     0.13100
H1284       H  0.66417702  0.04019192  0.85714576     0.12800
H1285       H  0.67621440  0.12830354  0.82263264     0.12200
H1286       H  0.62182736  0.09857373  0.80507813     0.12400
H1287       H  0.71754409  0.13280892  0.85157592     0.15200
H1288       H  0.71776823  0.06875026  0.86266797     0.14000
H1289       H  0.56148295  0.01055909  0.81865186     0.11600
H1290       H  0.58823597  0.06117060  0.77725428     0.13700
C1291       C  0.91789414  0.32152956  0.83448104     0.19700
C1292       C  0.94552410  0.34962186  0.84272198    -0.18400
C1293       C  0.95610780  0.37949227  0.83069297    -0.10600
C1294       C  0.93933851  0.38190207  0.80988457     0.22000
C1295       C  0.91187374  0.35368143  0.80153193    -0.20000
C1296       C  0.90131540  0.32388312  0.81355386    -0.10800
C1297       C  0.94984052  0.41259060  0.79560700    -0.15000
C1298       C  0.97780154  0.44066479  0.79898605    -0.28800
C1299       C  0.90721443  0.29038196  0.84815397    -0.03100
C1300       C  0.87621669  0.26609330  0.84830750    -0.39600
H1301       H  0.95883500  0.34853088  0.85874118     0.13100
H1302       H  0.97733727  0.40038499  0.83787276     0.12800
H1303       H  0.89867312  0.35456558  0.78536063     0.12200
H1304       H  0.88050452  0.30273918  0.80610325     0.12400
H1305       H  0.93392328  0.41154089  0.78063333     0.15200
H1306       H  0.99346302  0.44383903  0.81462153     0.14000
H1307       H  0.92488461  0.28847981  0.86010722     0.11600
H1308       H  0.85766134  0.26866404  0.83805270     0.13700
O1309       O  0.77385552  0.60374450  0.88597097    -0.77500
C1310       C  0.87768517  0.62848117  0.87986911     0.83600
O1311       O  0.82181526  0.63760118  0.96674723    -0.78600
O1312       O  0.91296177  0.71679186  0.92893179    -0.80100
O1313       O  0.83674681  0.72285788  0.86983231    -0.79800
O1314       O  0.77038641  0.64722270  0.87333222    -0.78500
Zn1315     Zn  0.81601793  0.62165296  0.90587292     1.55700
O1316       O  0.88721030  0.72950960  0.87413585    -0.79900
Cd1317     Cd  0.80747900  0.68460907  0.89282758     1.59700
Cd1318     Cd  0.83374977  0.67744587  0.94558510     1.59600
O1319       O  0.78359668  0.70051803  0.91752070    -0.79900
O1320       O  0.83482458  0.66845245  0.91008776    -1.90400
Cd1321     Cd  0.88177355  0.69270491  0.89891456     1.59900
O1322       O  0.80004741  0.69143487  0.95373682    -0.79800
O1323       O  0.89445599  0.65934435  0.88251181    -0.78500
C1324       C  0.81090755  0.60786513  0.96149439     0.84100
C1325       C  0.75937541  0.61653443  0.87397788     0.83700
O1326       O  0.84837723  0.61259506  0.88755649    -0.77400
C1327       C  0.86719290  0.73806194  0.86505185     0.84500
O1328       O  0.80678686  0.59783083  0.93915266    -0.77500
C1329       C  0.78276511  0.70015506  0.94107457     0.84700
C1330       C  0.90636742  0.72378505  0.95034852     0.85000
O1331       O  0.87734414  0.71258583  0.95806226    -0.79900
O1332       O  0.90007767  0.72606536  0.59084456    -0.77500
C1333       C  0.80291167  0.71388037  0.58209034     0.83600
O1334       O  0.85312994  0.71856017  0.67312500    -0.78600
O1335       O  0.75676963  0.63120347  0.63539486    -0.80100
O1336       O  0.83174670  0.61003925  0.58875361    -0.79800
O1337       O  0.90202699  0.67954872  0.58958393    -0.78500
Zn1338     Zn  0.86072450  0.71780748  0.61108041     1.55700
O1339       O  0.78560852  0.61268814  0.58432791    -0.79900
Cd1340     Cd  0.86127066  0.64932402  0.61074539     1.59700
Cd1341     Cd  0.83426130  0.67233588  0.65841837     1.59600
O1342       O  0.87530611  0.63185988  0.64120934    -0.79900
O1343       O  0.83713175  0.67285649  0.62160377    -1.90400
Cd1344     Cd  0.79184643  0.65078208  0.60735947     1.59900
O1345       O  0.85862738  0.64974021  0.67354831    -0.79800
O1346       O  0.78413807  0.68384627  0.58661129    -0.78500
C1347       C  0.86966049  0.74616354  0.66294819     0.84100
C1348       C  0.91341779  0.70936727  0.58365103     0.83700
O1349       O  0.83184639  0.72893848  0.59041199    -0.77400
C1350       C  0.80334830  0.59945383  0.57963885     0.84500
O1351       O  0.87547990  0.74898429  0.63981092    -0.77500
C1352       C  0.87249200  0.63441163  0.66449859     0.84700
C1353       C  0.75928601  0.63179458  0.65893567     0.85000
O1354       O  0.78666297  0.64649621  0.66981448    -0.79900
C1355       C  0.50552197  0.00433248  0.79011277     0.46500
H1356       H  0.50849366  0.00757402  0.81045095    -0.02500
C1357       C  0.49880758  0.99717823  0.74235155     0.46600
H1358       H  0.49613005  0.99412168  0.72194302    -0.02500
C1359       C  0.53969834  0.51856204  0.77489684    -0.16200
C1360       C  0.98869953  0.96867108  0.78062845    -0.16000
C1361       C  0.98879484  0.52093724  0.77829190    -0.16300
C1362       C  0.53556188  0.51475932  0.74969515    -0.16300
C1363       C  0.98556643  0.96516738  0.75537864    -0.15900
C1364       C  0.98478557  0.51668086  0.75309946    -0.16200
O1365       O  0.72595887  0.90215585  0.37859478    -0.77500
C1366       C  0.61992136  0.86663823  0.36812581     0.83600
O1367       O  0.68661536  0.88758651  0.45982675    -0.78600
O1368       O  0.59058553  0.79183320  0.42675617    -0.80100
O1369       O  0.67260407  0.78472711  0.37286087    -0.79800
O1370       O  0.73736684  0.86115316  0.37808383    -0.78500
Zn1371     Zn  0.68285208  0.88536391  0.39698550     1.55700
O1372       O  0.62068110  0.77313972  0.37707099    -0.79900
Cd1373     Cd  0.69743744  0.82446967  0.39608331     1.59700
Cd1374     Cd  0.66829539  0.84084262  0.44599396     1.59600
O1375       O  0.71458037  0.80784033  0.42495094    -0.79900
O1376       O  0.66802060  0.84118652  0.40893560    -1.90400
Cd1377     Cd  0.62268063  0.81162457  0.39730625     1.59900
O1378       O  0.69598402  0.82038779  0.45902037    -0.79800
O1379       O  0.60667666  0.83710057  0.37513135    -0.78500
C1380       C  0.69367784  0.91437359  0.44909005     0.84100
C1381       C  0.74476511  0.89045560  0.37298584     0.83700
O1382       O  0.64869981  0.88732385  0.37477410    -0.77400
C1383       C  0.64234229  0.76653322  0.36865905     0.84500
O1384       O  0.69180821  0.91626310  0.42569924    -0.77500
C1385       C  0.71185145  0.80802290  0.44838602     0.84700
C1386       C  0.59406402  0.79475558  0.45014126     0.85000
O1387       O  0.62166049  0.81279220  0.46010876    -0.79900
O1388       O  0.67084511  0.90025363  0.14749700    -0.77500
C1389       C  0.73931041  0.86434269  0.16140027     0.83600
O1390       O  0.71124005  0.87916724  0.06871098    -0.78600
O1391       O  0.69659647  0.78461883  0.10794269    -0.80100
O1392       O  0.60126889  0.78047505  0.14429100    -0.79800
O1393       O  0.61911981  0.86066916  0.14660721    -0.78500
Zn1394     Zn  0.69771255  0.88386423  0.12877466     1.55700
O1395       O  0.64353398  0.77215871  0.15253860    -0.79900
Cd1396     Cd  0.62196824  0.82488250  0.12510775     1.59700
Cd1397     Cd  0.67507315  0.83713302  0.08249841     1.59600
O1398       O  0.59585232  0.81845137  0.09180849    -0.79900
O1399       O  0.66935463  0.83916789  0.11839107    -1.90400
Cd1400     Cd  0.68269467  0.80859652  0.13403526     1.59900
O1401       O  0.63436790  0.82837855  0.06365311    -0.79800
O1402       O  0.72176365  0.83396739  0.15757826    -0.78500
C1403       C  0.72523571  0.90784120  0.07717838     0.84100
C1404       C  0.64089505  0.88899687  0.15333408     0.83700
O1405       O  0.73284148  0.88531464  0.15153239    -0.77400
C1406       C  0.61320779  0.76352782  0.15384721     0.84500
O1407       O  0.72105471  0.91411277  0.09947645    -0.77500
C1408       C  0.60533404  0.82098299  0.06931300     0.84700
C1409       C  0.69459969  0.78385457  0.08443432     0.85000
O1410       O  0.68553708  0.80151494  0.07268084    -0.79900
C1411       C  0.49470371  0.50590979  0.28780004     0.46500
H1412       H  0.49300393  0.50290825  0.30821611    -0.02500
C1413       C  0.49913736  0.51321761  0.23999934     0.46600
H1414       H  0.50086531  0.51602194  0.21958358    -0.02500
C1415       C  0.51643429  0.99114956  0.27493893    -0.16200
C1416       C  0.96296226  0.98968515  0.27365677    -0.16000
C1417       C  0.51163805  0.54148881  0.27956926    -0.16300
C1418       C  0.51828592  0.99420576  0.24946789    -0.16300
C1419       C  0.96565717  0.99321064  0.24838941    -0.15900
C1420       C  0.51416498  0.54565431  0.25434268    -0.16200
C1421       C  0.58141295  0.68063074  0.18734281     0.19700
C1422       C  0.59614176  0.66825642  0.20359627    -0.18400
C1423       C  0.57828800  0.63741063  0.21403681    -0.10600
C1424       C  0.54513984  0.61789716  0.20830347     0.22000
C1425       C  0.53047892  0.62984058  0.19158403    -0.20000
C1426       C  0.54831801  0.66101391  0.18132126    -0.10800
C1427       C  0.52596238  0.58482855  0.21917808    -0.15000
C1428       C  0.53119395  0.57837233  0.24246316    -0.28800
C1429       C  0.60216661  0.71310397  0.17600180    -0.03100
C1430       C  0.59097441  0.73232142  0.16615977    -0.39600
H1431       H  0.62170921  0.68253177  0.20821799     0.13100
H1432       H  0.59069038  0.62862276  0.22622556     0.12800
H1433       H  0.50511253  0.61509634  0.18659139     0.12200
H1434       H  0.53634565  0.66926552  0.16829252     0.12400
H1435       H  0.50655869  0.56615679  0.20827168     0.15200
H1436       H  0.54854002  0.59846457  0.25348976     0.14000
H1437       H  0.62827829  0.72175670  0.17608581     0.11600
H1438       H  0.56516411  0.72491379  0.16663442     0.13700
C1439       C  0.88399619  0.94008052  0.21554042     0.19700
C1440       C  0.85671551  0.91137352  0.22328580    -0.18400
C1441       C  0.82665602  0.90025244  0.21149568    -0.10600
C1442       C  0.82337645  0.91745452  0.19136882     0.22000
C1443       C  0.85066289  0.94624445  0.18369237    -0.20000
C1444       C  0.88071504  0.95740903  0.19553050    -0.10800
C1445       C  0.79208348  0.90633925  0.17793259    -0.15000
C1446       C  0.76841566  0.87515837  0.17722392    -0.28800
C1447       C  0.91512002  0.95122312  0.22910163    -0.03100
C1448       C  0.93771761  0.98260474  0.23122579    -0.39600
H1449       H  0.85853787  0.89777464  0.23882960     0.13100
H1450       H  0.80606483  0.87849545  0.21847433     0.12800
H1451       H  0.84882801  0.95994570  0.16823228     0.12200
H1452       H  0.90131482  0.97929426  0.18871445     0.12400
H1453       H  0.78943129  0.92418690  0.16676618     0.15200
H1454       H  0.77142266  0.85651312  0.18688259     0.14000
H1455       H  0.91836212  0.93318697  0.23955460     0.11600
H1456       H  0.93570625  0.00135576  0.22089795     0.13700
C1457       C  0.59156542  0.92176035  0.19067461     0.19700
C1458       C  0.55859971  0.91394153  0.19127957    -0.18400
C1459       C  0.54817409  0.93241483  0.20522087    -0.10600
C1460       C  0.57056636  0.95939283  0.21900208     0.22000
C1461       C  0.60345387  0.96686816  0.21881827    -0.20000
C1462       C  0.61391636  0.94838282  0.20482098    -0.10800
C1463       C  0.56005935  0.97863972  0.23505999    -0.15000
C1464       C  0.53159292  0.97886543  0.23203898    -0.28800
C1465       C  0.60117760  0.90085312  0.17574276    -0.03100
C1466       C  0.63192327  0.90997662  0.16839776    -0.39600
H1467       H  0.54072005  0.89329315  0.18096745     0.13100
H1468       H  0.52240013  0.92483239  0.20558543     0.12800
H1469       H  0.62112278  0.98699511  0.22968601     0.12200
H1470       H  0.63936351  0.95471838  0.20565595     0.12400
H1471       H  0.57331206  0.49160634  0.25093324     0.15200
H1472       H  0.51722791  0.96815090  0.21557139     0.14000
H1473       H  0.58188032  0.87726565  0.16993962     0.11600
H1474       H  0.65144644  0.93387559  0.17309871     0.13700
C1475       C  0.89219547  0.95877875  0.32108482     0.19700
C1476       C  0.87903789  0.97374939  0.33644322    -0.18400
C1477       C  0.84788250  0.95562059  0.34683767    -0.10600
C1478       C  0.82956211  0.92200131  0.34232030     0.22000
C1479       C  0.84317577  0.90703253  0.32748702    -0.20000
C1480       C  0.87399062  0.92513255  0.31691491    -0.10800
C1481       C  0.79712483  0.90121721  0.35378770    -0.15000
C1482       C  0.77632676  0.91198943  0.36082884    -0.28800
C1483       C  0.92489705  0.97829213  0.30956736    -0.03100
C1484       C  0.93102699  0.97164463  0.28659156    -0.39600
H1485       H  0.89273784  0.99955120  0.34017155     0.13100
H1486       H  0.83859087  0.96783174  0.35877941     0.12800
H1487       H  0.82986544  0.88113759  0.32403143     0.12200
H1488       H  0.88375157  0.91260032  0.30576941     0.12400
H1489       H  0.78973426  0.87557801  0.35591527     0.15200
H1490       H  0.78251312  0.93716350  0.35780489     0.14000
H1491       H  0.94329397  0.99920208  0.31943348     0.11600
H1492       H  0.91104099  0.95264224  0.27653201     0.13700
C1493       C  0.56578285  0.62095200  0.31495643     0.19700
C1494       C  0.59708683  0.64643347  0.30982455    -0.18400
C1495       C  0.60899208  0.67634949  0.32189314    -0.10600
C1496       C  0.58990457  0.68140138  0.33972137     0.22000
C1497       C  0.55874464  0.65575802  0.34510892    -0.20000
C1498       C  0.54681031  0.62582719  0.33300032    -0.10800
C1499       C  0.60105412  0.71301425  0.35272223    -0.15000
C1500       C  0.63237494  0.73653787  0.35406038    -0.28800
C1501       C  0.55382356  0.59041210  0.30036838    -0.03100
C1502       C  0.52222573  0.56834810  0.29775255    -0.39600
H1503       H  0.61217724  0.64345544  0.29593100     0.13100
H1504       H  0.63280244  0.69550181  0.31668289     0.12800
H1505       H  0.54352053  0.65887914  0.35880257     0.12200
H1506       H  0.52283880  0.60675190  0.33795768     0.12400
H1507       H  0.58264902  0.71647313  0.36256221     0.15200
H1508       H  0.65159894  0.73316866  0.34563564     0.14000
H1509       H  0.57164054  0.58718122  0.28946845     0.11600
H1510       H  0.50333028  0.56998191  0.30826850     0.13700
C1511       C  0.59151370  0.91805763  0.32957090     0.19700
C1512       C  0.59899080  0.95080516  0.33022777    -0.18400
C1513       C  0.58088276  0.96177732  0.31645458    -0.10600
C1514       C  0.55468154  0.94012267  0.30162330     0.22000
C1515       C  0.54789180  0.90759821  0.30033375    -0.20000
C1516       C  0.56600006  0.89660956  0.31413782    -0.10800
C1517       C  0.53507885  0.95090960  0.28636831    -0.15000
C1518       C  0.53368316  0.97842957  0.29085301    -0.28800
C1519       C  0.61128951  0.90749986  0.34481748    -0.03100
C1520       C  0.60070519  0.87656772  0.35200578    -0.39600
H1521       H  0.61888647  0.96800339  0.34155319     0.13100
H1522       H  0.58797609  0.98734166  0.31721006     0.12800
H1523       H  0.52843071  0.89057062  0.28860811     0.12200
H1524       H  0.56018644  0.87145573  0.31229767     0.12400
H1525       H  0.52115951  0.93558630  0.27104533     0.15200
H1526       H  0.54424450  0.99197079  0.30767387     0.14000
H1527       H  0.63483502  0.92618707  0.35133943     0.11600
H1528       H  0.57659381  0.85779502  0.34678803     0.13700
C1529       C  0.72493127  0.97583425  0.50320023     0.19700
C1530       C  0.74144291  0.97715392  0.52517221    -0.18400
C1531       C  0.75710557  0.50479647  0.53909126    -0.10600
C1532       C  0.75133044  0.53094965  0.53377708     0.22000
C1533       C  0.73263272  0.52899756  0.51293678    -0.20000
C1534       C  0.72069836  0.00267576  0.49677446    -0.10800
C1535       C  0.76352165  0.55996505  0.55007262    -0.15000
C1536       C  0.79107204  0.57070511  0.56336364    -0.28800
C1537       C  0.71183140  0.94568987  0.48805182    -0.03100
C1538       C  0.70483094  0.94442730  0.46380567    -0.39600
H1539       H  0.74463526  0.95668460  0.53077047     0.13100
H1540       H  0.77045443  0.50490884  0.55544732     0.12800
H1541       H  0.72741252  0.54859878  0.50866835     0.12200
H1542       H  0.70726893  0.00231105  0.48041422     0.12400
H1543       H  0.75013830  0.57356270  0.55037281     0.15200
H1544       H  0.80579465  0.55858695  0.56185977     0.14000
H1545       H  0.70936607  0.92390042  0.49703374     0.11600
H1546       H  0.70879873  0.96621036  0.45403807     0.13700
C1547       C  0.53720597  0.76075034  0.50693775     0.19700
C1548       C  0.53563002  0.77447763  0.52961274    -0.18400
C1549       C  0.00910197  0.75843673  0.54416570    -0.10600
C1550       C  0.98372708  0.72742241  0.53811833     0.22000
C1551       C  0.98580855  0.71278497  0.51601990    -0.20000
C1552       C  0.51212439  0.72955419  0.50082174    -0.10800
C1553       C  0.95501213  0.70995461  0.55460483    -0.15000
C1554       C  0.94288087  0.72583170  0.56809812    -0.28800
C1555       C  0.56595052  0.77920385  0.49067934    -0.03100
C1556       C  0.56505350  0.77611984  0.46589662    -0.39600
H1557       H  0.55490551  0.79818409  0.53496895     0.13100
H1558       H  0.00885433  0.77000269  0.56143334     0.12800
H1559       H  0.96683406  0.68869901  0.51114400     0.12200
H1560       H  0.51307643  0.71775192  0.48387682     0.12400
H1561       H  0.94239031  0.68356507  0.55441146     0.15200
H1562       H  0.95389144  0.75207774  0.56671002     0.14000
H1563       H  0.58835226  0.79699070  0.49942156     0.11600
H1564       H  0.54238749  0.75979155  0.45675587     0.13700
C1565       C  0.75657761  0.73759758  0.53497563     0.19700
C1566       C  0.74582349  0.72682821  0.51087924    -0.18400
C1567       C  0.73651889  0.74469174  0.49527296    -0.10600
C1568       C  0.73734750  0.77349493  0.50369044     0.22000
C1569       C  0.74742122  0.78382937  0.52799834    -0.20000
C1570       C  0.75719257  0.76623439  0.54346157    -0.10800
C1571       C  0.72569528  0.79198406  0.48824847    -0.15000
C1572       C  0.72668073  0.79225348  0.46338146    -0.28800
C1573       C  0.76648209  0.71829420  0.55106062    -0.03100
C1574       C  0.79142228  0.73246363  0.56696202    -0.39600
H1575       H  0.74481197  0.70462521  0.50407494     0.13100
H1576       H  0.72784791  0.73538529  0.47693185     0.12800
H1577       H  0.74769810  0.80559404  0.53505009     0.12200
H1578       H  0.76458273  0.77468603  0.56219140     0.12400
H1579       H  0.71601374  0.80594211  0.49778216     0.15200
H1580       H  0.73792490  0.77992390  0.45362354     0.14000
H1581       H  0.75456826  0.69212004  0.54853904     0.11600
H1582       H  0.80523710  0.75878541  0.56789092     0.13700
C1583       C  0.93064873  0.54933323  0.72401030     0.19700
C1584       C  0.91208258  0.56303906  0.73353994    -0.18400
C1585       C  0.90011140  0.57862499  0.71792162    -0.10600
C1586       C  0.90649963  0.58079301  0.69230174     0.22000
C1587       C  0.92392056  0.56586211  0.68269748    -0.20000
C1588       C  0.93584556  0.55027363  0.69830343    -0.10800
C1589       C  0.89485109  0.59755074  0.67486918    -0.15000
C1590       C  0.88507436  0.61900114  0.68201489    -0.28800
C1591       C  0.94392946  0.53402286  0.74130045    -0.03100
C1592       C  0.97114750  0.53213245  0.73636478    -0.39600
H1593       H  0.90717698  0.56205114  0.75319991     0.13100
H1594       H  0.88565506  0.58852598  0.72609654     0.12800
H1595       H  0.92854546  0.56645082  0.66301575     0.12200
H1596       H  0.94878335  0.53873488  0.69006114     0.12400
H1597       H  0.89480001  0.59234565  0.65526881     0.15200
H1598       H  0.88553316  0.62526775  0.70135763     0.14000
H1599       H  0.92930724  0.02309925  0.75692842     0.11600
H1600       H  0.98362617  0.54086870  0.71884719     0.13700
C1601       C  0.61754509  0.54494561  0.71482221     0.19700
C1602       C  0.64877696  0.55158161  0.72242216    -0.18400
C1603       C  0.67557888  0.56768836  0.70675976    -0.10600
C1604       C  0.67179484  0.57771501  0.68301532     0.22000
C1605       C  0.64040226  0.56994342  0.67498634    -0.20000
C1606       C  0.61351132  0.55381011  0.69068964    -0.10800
C1607       C  0.70004667  0.59569877  0.66619012    -0.15000
C1608       C  0.73026698  0.61481812  0.67481799    -0.28800
C1609       C  0.59018535  0.52882676  0.73270848    -0.03100
C1610       C  0.56173492  0.52924888  0.73078962    -0.39600
H1611       H  0.65254737  0.54456676  0.74071487     0.13100
H1612       H  0.69914032  0.57190487  0.71328247     0.12800
H1613       H  0.63673097  0.57677457  0.65659997     0.12200
H1614       H  0.58977794  0.54820413  0.68367271     0.12400
H1615       H  0.69575121  0.59378073  0.64636668     0.15200
H1616       H  0.73436624  0.61806270  0.69461013     0.14000
H1617       H  0.59416645  0.51723878  0.74874979     0.11600
H1618       H  0.55652116  0.53978757  0.71475606     0.13700
C1619       C  0.91730524  0.83410933  0.68591434     0.19700
C1620       C  0.95075066  0.85565797  0.68783675    -0.18400
C1621       C  0.96181622  0.88452193  0.70122524    -0.10600
C1622       C  0.93947858  0.89271967  0.71220206     0.22000
C1623       C  0.90600997  0.87154638  0.70982403    -0.20000
C1624       C  0.89495793  0.84219048  0.69708137    -0.10800
C1625       C  0.95077673  0.92385277  0.72537219    -0.15000
C1626       C  0.97472385  0.93411498  0.74213395    -0.28800
C1627       C  0.90614767  0.80419469  0.67106076    -0.03100
C1628       C  0.88153548  0.77556149  0.67838028    -0.39600
H1629       H  0.96830819  0.85001388  0.67909339     0.13100
H1630       H  0.98775704  0.90082794  0.70249867     0.12800
H1631       H  0.88845900  0.87764901  0.71799821     0.12200
H1632       H  0.86899657  0.82624198  0.69537947     0.12400
H1633       H  0.93798364  0.93772767  0.72232022     0.15200
H1634       H  0.98547751  0.91887734  0.74710513     0.14000
H1635       H  0.91933915  0.80554667  0.65414398     0.11600
H1636       H  0.87009184  0.77356713  0.69627002     0.13700
C1637       C  0.53015667  0.79309765  0.02749523     0.19700
C1638       C  0.00308069  0.79882969  0.02494343    -0.18400
C1639       C  0.98264241  0.78795202  0.00425521    -0.10600
C1640       C  0.98711269  0.76899433  0.98591810     0.22000
C1641       C  0.51581650  0.76517735  0.98770647    -0.20000
C1642       C  0.53647201  0.77669041  0.00815890    -0.10800
C1643       C  0.96369459  0.75354110  0.96525459    -0.15000
C1644       C  0.93199950  0.74465341  0.96786181    -0.28800
C1645       C  0.55102753  0.80392191  0.04993358    -0.03100
C1646       C  0.58309705  0.81427367  0.04824668    -0.39600
H1647       H  0.99884826  0.81286943  0.03899214     0.13100
H1648       H  0.96327610  0.79425638  0.00282145     0.12800
H1649       H  0.52076378  0.75183930  0.97348175     0.12200
H1650       H  0.55674996  0.77167062  0.00917310     0.12400
H1651       H  0.97177492  0.74589596  0.94889669     0.15200
H1652       H  0.92347147  0.75018081  0.98496321     0.14000
H1653       H  0.53997332  0.80307633  0.06779358     0.11600
H1654       H  0.59392780  0.81677619  0.03003626     0.13700
C1655       C  0.76910729  0.98906248  0.04276513     0.19700
C1656       C  0.75944484  0.51578282  0.04298719    -0.18400
C1657       C  0.76897916  0.53711028  0.02291910    -0.10600
C1658       C  0.78464726  0.53222069  0.00233604     0.22000
C1659       C  0.79338350  0.00522353  0.00174673    -0.20000
C1660       C  0.78490777  0.98439026  0.02212485    -0.10800
C1661       C  0.79389010  0.55381698  0.98038482    -0.15000
C1662       C  0.80250944  0.58537928  0.98251820    -0.28800
C1663       C  0.75574890  0.96520952  0.06333469    -0.03100
C1664       C  0.74561839  0.93354411  0.05960827    -0.39600
H1665       H  0.74664585  0.51959764  0.05827569     0.13100
H1666       H  0.76304643  0.55675071  0.02326110     0.12800
H1667       H  0.80498312  0.00084511  0.98591385     0.12200
H1668       H  0.79056079  0.96457742  0.02150959     0.12400
H1669       H  0.79458451  0.54386308  0.96237178     0.15200
H1670       H  0.80407052  0.59575130  0.00075742     0.14000
H1671       H  0.75016689  0.97299224  0.08078876     0.11600
H1672       H  0.74892861  0.92525837  0.04161788     0.13700
C1673       C  0.71103451  0.74291627  0.02857939     0.19700
C1674       C  0.71266220  0.74989866  0.00320210    -0.18400
C1675       C  0.72669110  0.73734121  0.98661544    -0.10600
C1676       C  0.73912726  0.71717171  0.99513464     0.22000
C1677       C  0.73616351  0.70905399  0.02036791    -0.20000
C1678       C  0.72222940  0.72169902  0.03695504    -0.10800
C1679       C  0.75716805  0.70557740  0.97905596    -0.15000
C1680       C  0.76148591  0.71022132  0.95440602    -0.28800
C1681       C  0.69847220  0.75926113  0.04544917    -0.03100
C1682       C  0.70368092  0.76263458  0.07007277    -0.39600
H1683       H  0.70396844  0.76601726  0.99624990     0.13100
H1684       H  0.72842475  0.74434032  0.96742686     0.12800
H1685       H  0.74528833  0.69333243  0.02741522     0.12200
H1686       H  0.72058092  0.71492440  0.05620873     0.12400
H1687       H  0.76847050  0.69304283  0.98845149     0.15200
H1688       H  0.74986926  0.72149240  0.94391532     0.14000
H1689       H  0.68619840  0.77127135  0.03669195     0.11600
H1690       H  0.71609712  0.75141162  0.07960859     0.13700
C1691       C  0.93591861  0.60095286  0.84954406     0.19700
C1692       C  0.96179243  0.61440870  0.83254706    -0.18400
C1693       C  0.97400696  0.59522913  0.82171254    -0.10600
C1694       C  0.96078405  0.56211495  0.82786950     0.22000
C1695       C  0.93606786  0.54910093  0.84577702    -0.20000
C1696       C  0.92366120  0.56816643  0.85642613    -0.10800
C1697       C  0.97174019  0.54041102  0.81569779    -0.15000
C1698       C  0.98151384  0.54434014  0.79196580    -0.28800
C1699       C  0.92269424  0.62173133  0.86017792    -0.03100
C1700       C  0.89169232  0.60932645  0.86812940    -0.39600
H1701       H  0.97221479  0.63972184  0.82730161     0.13100
H1702       H  0.99384872  0.60641686  0.80859385     0.12800
H1703       H  0.92581368  0.52385509  0.85117452     0.12200
H1704       H  0.90467274  0.55714718  0.87021646     0.12400
H1705       H  0.96853558  0.51893867  0.82560422     0.15200
H1706       H  0.98215717  0.56436448  0.78151647     0.13600
H1707       H  0.93854618  0.64782676  0.86086736     0.11600
H1708       H  0.87535892  0.58346622  0.86624284     0.13700
C1709       C  0.61419971  0.55108752  0.81863181     0.19700
C1710       C  0.62630396  0.53608815  0.83488614    -0.18400
C1711       C  0.65772175  0.55343926  0.84482714    -0.10600
C1712       C  0.67770824  0.58638872  0.83878395     0.22000
C1713       C  0.66534687  0.60143445  0.82282678    -0.20000
C1714       C  0.63405883  0.58412078  0.81288260    -0.10800
C1715       C  0.71053814  0.60667790  0.84985617    -0.15000
C1716       C  0.72837057  0.59492676  0.86122958    -0.28800
C1717       C  0.58076839  0.53184527  0.80824570    -0.03100
C1718       C  0.57193610  0.53913375  0.78650568    -0.39600
H1719       H  0.61141136  0.51079890  0.83987012     0.13100
H1720       H  0.66579115  0.54108011  0.85761314     0.12800
H1721       H  0.67989611  0.62689286  0.81817544     0.12200
H1722       H  0.62537209  0.59699064  0.80114230     0.12400
H1723       H  0.72038806  0.63285204  0.84872124     0.15200
H1724       H  0.71977703  0.56898903  0.86205849     0.14000
H1725       H  0.56373751  0.50980561  0.81781275     0.11600
H1726       H  0.58960666  0.55952539  0.77579845     0.13700
C1727       C  0.92074755  0.82194059  0.83444193     0.19700
C1728       C  0.94914665  0.84992734  0.84182370    -0.18400
C1729       C  0.95952738  0.87964115  0.82953248    -0.10600
C1730       C  0.94168000  0.88196568  0.80940112     0.22000
C1731       C  0.91360793  0.85381039  0.80183429    -0.20000
C1732       C  0.90333140  0.82421733  0.81403525    -0.10800
C1733       C  0.95156095  0.91237808  0.79489721    -0.15000
C1734       C  0.97875740  0.94107838  0.79837927    -0.28800
C1735       C  0.91002998  0.79093145  0.84836934    -0.03100
C1736       C  0.87887276  0.76693545  0.84883939    -0.39600
H1737       H  0.96321461  0.84887944  0.85734860     0.13100
H1738       H  0.98146069  0.90045820  0.83592193     0.12800
H1739       H  0.89962266  0.85457934  0.78614014     0.12200
H1740       H  0.88200041  0.80316578  0.80708883     0.12400
H1741       H  0.93551824  0.91070170  0.77982735     0.15200
H1742       H  0.99426722  0.94495777  0.81425685     0.14000
H1743       H  0.92781508  0.78880742  0.86003552     0.11600
H1744       H  0.86030078  0.76978283  0.83886736     0.13700
loop_ 
_geom_bond_atom_site_label_1 
_geom_bond_atom_site_label_2 
_geom_bond_distance 
_geom_bond_site_symmetry_2 
_ccdc_geom_bond_type 
O1           C17   1.278       .  A
O1           Zn7   2.044       .  S
C2           O18   1.275       .  A
C2           O15   1.282       .  A
C2          C392   1.480       .  S
O3           C16   1.267       .  A
O3          Cd10   2.029       .  S
O4           C22   1.281       .  A
O4          Cd13   2.112       .  S
O5           C19   1.276       .  A
O5           Cd9   2.072       .  S
O6           C17   1.276       .  A
O6           Cd9   2.067       .  S
Zn7          O18   2.008       .  S
Zn7          O20   2.055       .  S
Zn7          O12   1.945       .  S
O8           C19   1.281       .  A
O8          Cd13   2.105       .  S
Cd9          O11   2.087       .  S
Cd9          O12   1.997       .  S
Cd10         O14   2.027       .  S
Cd10         O23   2.027       .  S
Cd10         O12   1.964       .  S
O11          C21   1.274       .  A
O12         Cd13   2.015       .  S
Cd13         O15   2.110       .  S
O14          C21   1.269       .  A
C16          O20   1.277       .  A
C16         C354   1.471       .  S
C17         C408   1.483       .  S
C19         C428   1.483       .  S
C21         C372   1.474       .  S
C22          O23   1.268       .  A
C22         C336   1.472       .  S
O24          C40   1.272       .  A
O24         Zn30   2.007       .  S
C25          O41   1.273       .  A
C25          O38   1.276       .  A
C25         C266   1.472       .  S
O26          C39   1.272       .  A
O26         Cd33   2.073       .  S
O27          C45   1.277       .  A
O27         Cd36   2.090       .  S
O28          C42   1.275       .  A
O28         Cd32   2.075       .  S
O29          C40   1.277       .  A
O29         Cd32   2.088       .  S
Zn30         O41   2.009       .  S
Zn30         O43   2.018       .  S
Zn30         O35   1.939       .  S
O31          C42   1.276       .  A
O31         Cd36   2.078       .  S
Cd32         O34   2.081       .  S
Cd32         O35   2.007       .  S
Cd33         O37   2.062       .  S
Cd33         O46   2.053       .  S
Cd33         O35   1.996       .  S
O34          C44   1.278       .  A
O35         Cd36   2.012       .  S
Cd36         O38   2.076       .  S
O37          C44   1.273       .  A
C39          O43   1.274       .  A
C39         C320   1.476       .  S
C40         C246   1.475       .  S
C42         C228   1.478       .  S
C44         C282   1.475       .  S
C45          O46   1.272       .  A
C45         C300   1.473       .  S
C47          H48   1.110       .  S
C47        C1361   1.552   1_455  S
C47         C924   1.545   1_455  S
C47         C487   1.548       .  S
C49          H50   1.112       .  S
C49         C927   1.529       .  S
C49         C490   1.527   1_655  S
C49        C1364   1.525       .  S
C51         C483   1.548       .  S
C51          C54   1.376       .  D
C51         C410   1.486       .  S
C52         C919   1.545       .  S
C52          C55   1.375       .  D
C52         C426   1.496       .  S
C53        C1355   1.552       .  S
C53          C56   1.376       .  D
C53         C390   1.489       .  S
C54         C485   1.527   1_445  S
C54         C302   1.482       .  S
C55         C921   1.530       .  S
C55         C318   1.479       .  S
C56        C1357   1.524   1_545  S
C56         C284   1.482       .  S
O57          C73   1.277       .  A
O57         Zn63   2.042       .  S
C58          O74   1.279       .  A
C58          O71   1.274       .  A
C58         C212   1.481       .  S
O59          C72   1.276       .  A
O59         Cd66   2.074       .  S
O60          C78   1.274       .  A
O60         Cd69   2.075       .  S
O61          C75   1.274       .  A
O61         Cd65   2.074       .  S
O62          C73   1.276       .  A
O62         Cd65   2.073       .  S
Zn63         O74   2.046       .  S
Zn63         O76   2.039       .  S
Zn63         O68   1.955       .  S
O64          C75   1.275       .  A
O64         Cd69   2.073       .  S
Cd65         O67   2.068       .  S
Cd65         O68   2.003       .  S
Cd66         O70   2.070       .  S
Cd66         O79   2.076       .  S
Cd66         O68   2.003       .  S
O67          C77   1.273       .  A
O68         Cd69   2.001       .  S
Cd69         O71   2.068       .  S
O70          C77   1.275       .  A
C72          O76   1.276       .  A
C72         C230   1.482       .  S
C73         C174   1.483       .  S
C75         C192   1.478       .  S
C77         C264   1.475       .  S
C78          O79   1.276       .  A
C78         C248   1.480       .  S
O80          C96   1.276       .  A
O80         Zn86   2.026       .  S
C81          O97   1.277       .  A
C81          O94   1.275       .  A
C81         C138   1.479       .  S
O82          C95   1.267       .  A
O82         Cd89   2.028       .  S
O83         C101   1.273       .  A
O83         Cd92   2.084       .  S
O84          C98   1.279       .  A
O84         Cd88   2.102       .  S
O85          C96   1.280       .  A
O85         Cd88   2.095       .  S
Zn86         O97   2.033       .  S
Zn86         O99   2.052       .  S
Zn86         O91   1.950       .  S
O87          C98   1.276       .  A
O87         Cd92   2.065       .  S
Cd88         O90   2.113       .  S
Cd88         O91   2.015       .  S
Cd89         O93   2.025       .  S
Cd89        O102   2.029       .  S
Cd89         O91   1.970       .  S
O90         C100   1.280       .  A
O91         Cd92   2.002       .  S
Cd92         O94   2.072       .  S
O93         C100   1.267       .  A
C95          O99   1.277       .  A
C95         C356   1.470       .  S
C96         C158   1.483       .  S
C98         C122   1.486       .  S
C100        C338   1.472       .  S
C101        O102   1.269       .  A
C101        C374   1.474       .  S
C103        H104   1.111       .  S
C103        C109   1.531   1_655  S
C103       C1416   1.543   1_545  S
C103        C543   1.542   1_645  S
C105        H106   1.111       .  S
C105        C112   1.542       .  S
C105       C1419   1.530   1_445  S
C105        C546   1.540   1_545  S
C107        C539   1.540   1_455  S
C107        C110   1.383       .  D
C107        C210   1.487       .  S
C108       C1411   1.542       .  S
C108        C111   1.375       .  D
C108        C176   1.491       .  S
C109        C112   1.375       .  D
C109        C194   1.482       .  S
C110        C541   1.542   1_455  S
C110        C156   1.490       .  S
C111       C1413   1.533       .  S
C111        C140   1.483       .  S
C112        C120   1.489       .  S
C113        C121   1.491       .  S
C113        C114   1.404       .  A
C113        C118   1.410       .  A
C114        C115   1.396       .  A
C114        H123   1.084       .  S
C115        C116   1.406       .  A
C115        H124   1.083       .  S
C116        C119   1.489       .  S
C116        C117   1.404       .  A
C117        C118   1.405       .  A
C117        H125   1.083       .  S
C118        H126   1.081       .  S
C119        C120   1.344       .  D
C119        H127   1.086       .  S
C120        H128   1.082       .  S
C121        C122   1.350       .  D
C121        H129   1.087       .  S
C122        H130   1.084       .  S
C131        C139   1.489       .  S
C131        C132   1.404       .  A
C131        C136   1.408       .  A
C132        C133   1.399       .  A
C132        H141   1.083       .  S
C133        C134   1.409       .  A
C133        H142   1.080       .  S
C134        C137   1.491       .  S
C134        C135   1.404       .  A
C135        C136   1.399       .  A
C135        H143   1.083       .  S
C136        H144   1.081       .  S
C137        C138   1.348       .  D
C137        H145   1.087       .  S
C138        H146   1.083       .  S
C139        C140   1.345       .  D
C139        H147   1.087       .  S
C140        H148   1.084       .  S
C149        C157   1.494       .  S
C149        C150   1.403       .  A
C149        C154   1.410       .  A
C150        C151   1.399       .  A
C150        H159   1.083       .  S
C151        C152   1.409       .  A
C151        H160   1.081       .  S
C152        C155   1.494       .  S
C152        C153   1.404       .  A
C153        C154   1.402       .  A
C153        H161   1.083       .  S
C154        H162   1.081       .  S
C155        C156   1.347       .  D
C155        H599   1.086       .  S
C156        H164   1.084       .  S
C157        C158   1.347       .  D
C157        H165   1.087       .  S
C158        H166   1.084       .  S
H163        C591   1.086       .  S
C167        C175   1.489       .  S
C167        C168   1.403       .  A
C167        C172   1.407       .  A
C168        C169   1.403       .  A
C168        H177   1.083       .  S
C169        C170   1.409       .  A
C169        H178   1.082       .  S
C170        C173   1.490       .  S
C170        C171   1.403       .  A
C171        C172   1.398       .  A
C171        H179   1.083       .  S
C172        H180   1.083       .  S
C173        C174   1.348       .  D
C173        H181   1.087       .  S
C174        H182   1.085       .  S
C175        C176   1.344       .  D
C175        H183   1.086       .  S
C176        H184   1.082       .  S
C185        C193   1.488       .  S
C185        C186   1.404       .  A
C185        C190   1.408       .  A
C186        C187   1.398       .  A
C186        H195   1.083       .  S
C187        C188   1.407       .  A
C187        H196   1.081       .  S
C188        C191   1.489       .  S
C188        C189   1.404       .  A
C189        C190   1.399       .  A
C189        H197   1.083       .  S
C190        H198   1.081       .  S
C191        C192   1.348       .  D
C191        H199   1.087       .  S
C192        H200   1.084       .  S
C193        C194   1.345       .  D
C193        H201   1.087       .  S
C194        H202   1.083       .  S
C203        C211   1.493       .  S
C203        C204   1.403       .  A
C203        C208   1.410       .  A
C204        C205   1.398       .  A
C204        H213   1.084       .  S
C205        C206   1.409       .  A
C205        H214   1.081       .  S
C206        C209   1.492       .  S
C206        C207   1.404       .  A
C207        C208   1.402       .  A
C207        H215   1.083       .  S
C208        H216   1.081       .  S
C209        C210   1.346       .  D
C209        H217   1.086       .  S
C210        H218   1.084       .  S
C211        C212   1.346       .  D
C211        H219   1.087       .  S
C212        H220   1.084       .  S
C221        C229   1.490       .  S
C221        C222   1.404       .  A
C221        C226   1.408       .  A
C222        C659   1.398       .  A
C222        H231   1.083       .  S
C223        C224   1.406       .  A
C223        C658   1.398   1_545  A
C223        H232   1.082       .  S
C224        C227   1.487       .  S
C224        C225   1.404       .  A
C225        C662   1.401       .  A
C225        H233   1.083       .  S
C226        C661   1.402       .  A
C226        H234   1.082       .  S
C227        C228   1.347       .  D
C227        H235   1.087       .  S
C228        H236   1.085       .  S
C229        C230   1.348       .  D
C229        H237   1.087       .  S
C230        H238   1.085       .  S
C239        C247   1.486       .  S
C239        C240   1.403       .  A
C239        C244   1.408       .  A
C240       C1113   1.398       .  A
C240        H249   1.083       .  S
C241        C242   1.407       .  A
C241       C1112   1.397       .  A
C241        H250   1.082       .  S
C242        C245   1.487       .  S
C242        C243   1.404       .  A
C243       C1116   1.401       .  A
C243        H251   1.083       .  S
C244       C1115   1.401   1_455  A
C244        H252   1.082       .  S
C245        C246   1.345       .  D
C245        H253   1.087       .  S
C246        H254   1.086       .  S
C247        C248   1.346       .  D
C247        H255   1.087       .  S
C248        H256   1.086       .  S
C257        C265   1.481       .  S
C257        C258   1.402       .  A
C257        C262   1.406       .  A
C258        C259   1.398       .  A
C258        H267   1.084       .  S
C259        C260   1.408       .  A
C259        H268   1.082       .  S
C260        C263   1.482       .  S
C260        C261   1.402       .  A
C261        C262   1.397       .  A
C261        H269   1.084       .  S
C262        H270   1.083       .  S
C263        C264   1.344       .  D
C263        H271   1.087       .  S
C264        H272   1.086       .  S
C265        C266   1.343       .  D
C265        H273   1.087       .  S
C266        H274   1.086       .  S
C275        C283   1.485       .  S
C275        C276   1.402       .  A
C275        C280   1.408       .  A
C276        C277   1.399       .  A
C276        H285   1.084       .  S
C277        C278   1.410       .  A
C277        H286   1.081       .  S
C278        C281   1.487       .  S
C278        C279   1.402       .  A
C279        C280   1.396       .  A
C279        H287   1.083       .  S
C280        H288   1.081       .  S
C281        C282   1.344       .  D
C281        H289   1.087       .  S
C282        H290   1.084       .  S
C283        C284   1.344       .  D
C283        H727   1.087       .  S
C284        H292   1.084       .  S
H291        C719   1.086       .  S
C293        C301   1.488       .  S
C293        C294   1.401       .  A
C293        C298   1.411       .  A
C294        C295   1.395       .  A
C294        H303   1.084       .  S
C295        C296   1.408       .  A
C295        H304   1.082       .  S
C296        C299   1.487       .  S
C296        C297   1.402       .  A
C297        C298   1.400       .  A
C297        H305   1.084       .  S
C298        H306   1.080       .  S
C299        C300   1.344       .  D
C299        H307   1.087       .  S
C300        H308   1.086       .  S
C301        C302   1.343       .  D
C301        H309   1.087       .  S
C302        H310   1.083       .  S
C311        C319   1.479       .  S
C311        C312   1.402       .  A
C311        C316   1.406       .  A
C312        C313   1.398       .  A
C312        H321   1.083       .  S
C313        C314   1.404       .  A
C313        H322   1.083       .  S
C314        C317   1.477       .  S
C314        C315   1.402       .  A
C315        C316   1.400       .  A
C315        H323   1.083       .  S
C316        H324   1.083       .  S
C317        C318   1.340       .  D
C317        H325   1.087       .  S
C318        H326   1.087       .  S
C319        C320   1.344       .  D
C319        H327   1.087       .  S
C320        H328   1.087       .  S
C329        C337   1.486       .  S
C329        C334   1.409       .  A
C329       C1202   1.399       .  A
C330        C331   1.400       .  A
C330       C1201   1.400       .  A
C330        H339   1.083       .  S
C331        C332   1.413   1_554  A
C331        H340   1.081       .  S
C332        C335   1.490       .  S
C332       C1205   1.401       .  A
C333        C334   1.397   1_556  A
C333       C1204   1.401   1_455  A
C333        H341   1.083       .  S
C334        H342   1.082       .  S
C335        C336   1.341       .  D
C335        H343   1.087       .  S
C336        H344   1.085       .  S
C337        C338   1.340       .  D
C337        H345   1.086       .  S
C338        H346   1.087       .  S
C347        C355   1.487       .  S
C347        C352   1.411       .  A
C347        C784   1.401       .  A
C348        C349   1.396       .  A
C348        C783   1.400   1_545  A
C348        H357   1.083       .  S
C349        C350   1.409       .  A
C349        H358   1.082       .  S
C350        C353   1.484   1_554  S
C350        C787   1.400       .  A
C351        C352   1.397       .  A
C351        C786   1.399       .  A
C351        H359   1.083   1_554  S
C352        H360   1.081       .  S
C353        C354   1.340       .  D
C353        H361   1.087       .  S
C354        H362   1.087   1_556  S
C355        C356   1.341       .  D
C355        H363   1.087       .  S
C356        H364   1.085       .  S
C365        C373   1.484       .  S
C365        C366   1.405       .  A
C365        C370   1.406       .  A
C366        C367   1.396   1_554  A
C366        H375   1.083   1_554  S
C367        C368   1.405       .  A
C367        H376   1.080       .  S
C368        C371   1.481       .  S
C368        C369   1.404   1_556  A
C369        C370   1.395       .  A
C369        H377   1.083       .  S
C370        H378   1.079       .  S
C371        C372   1.348       .  D
C371        H379   1.088       .  S
C372        H380   1.083       .  S
C373        C374   1.349       .  D
C373        H381   1.087       .  S
C374        H382   1.083       .  S
C383        C391   1.492       .  S
C383        C384   1.403       .  A
C383        C388   1.409       .  A
C384        C385   1.402       .  A
C384        H393   1.083       .  S
C385        C386   1.410       .  A
C385        H394   1.082       .  S
C386        C389   1.492       .  S
C386        C387   1.402       .  A
C387        C388   1.400       .  A
C387        H395   1.083       .  S
C388        H396   1.082       .  S
C389        C390   1.343       .  D
C389        H397   1.086       .  S
C390        H398   1.084       .  S
C391        C392   1.345       .  D
C391        H399   1.086       .  S
C392        H400   1.086       .  S
C401        C409   1.489       .  S
C401        C402   1.404       .  A
C401        C406   1.407       .  A
C402        C403   1.402       .  A
C402        H411   1.083       .  S
C403        C404   1.409       .  A
C403        H412   1.081       .  S
C404        C407   1.491       .  S
C404        C405   1.405       .  A
C405        C406   1.398       .  A
C405        H413   1.084       .  S
C406        H414   1.082       .  S
C407        C408   1.350       .  D
C407        H415   1.087       .  S
C408        H416   1.084       .  S
C409        C410   1.345       .  D
C409        H417   1.087       .  S
C410        H418   1.085       .  S
C419        C427   1.496       .  S
C419        C420   1.406       .  A
C419        C424   1.407       .  A
C420        C421   1.404       .  A
C420        H429   1.083       .  S
C421        C422   1.409       .  A
C421        H430   1.080       .  S
C422        C425   1.496       .  S
C422        C423   1.406       .  A
C423        C424   1.399       .  A
C423        H431   1.084       .  S
C424        H432   1.081       .  S
C425        C426   1.352       .  D
C425        H433   1.086       .  S
C426        H434   1.083       .  S
C427        C428   1.349       .  D
C427        H435   1.087       .  S
C428        H436   1.085       .  S
O437        C453   1.277       .  A
O437       Zn443   2.042       .  S
C438        O454   1.275       .  A
C438        O451   1.282       .  A
C438        C828   1.481       .  S
O439        C452   1.266       .  A
O439       Cd446   2.025       .  S
O440        C458   1.280       .  A
O440       Cd449   2.118       .  S
O441        C455   1.276       .  A
O441       Cd445   2.066       .  S
O442        C453   1.276       .  A
O442       Cd445   2.070       .  S
Zn443       O454   2.011       .  S
Zn443       O456   2.052       .  S
Zn443       O448   1.948       .  S
O444        C455   1.281       .  A
O444       Cd449   2.104       .  S
Cd445       O447   2.090       .  S
Cd445       O448   2.004       .  S
Cd446       O450   2.020       .  S
Cd446       O459   2.025       .  S
Cd446       O448   1.969       .  S
O447        C457   1.274       .  A
O448       Cd449   2.022       .  S
Cd449       O451   2.113       .  S
O450        C457   1.268       .  A
C452        O456   1.277       .  A
C452        C790   1.469       .  S
C453        C844   1.483       .  S
C455        C864   1.480       .  S
C457        C808   1.475       .  S
C458        O459   1.267       .  A
C458        C772   1.474       .  S
O460        C476   1.273       .  A
O460       Zn466   2.011       .  S
C461        O477   1.273       .  A
C461        O474   1.277       .  A
C461        C702   1.474       .  S
O462        C475   1.272       .  A
O462       Cd469   2.069       .  S
O463        C481   1.278       .  A
O463       Cd472   2.092       .  S
O464        C478   1.275       .  A
O464       Cd468   2.073       .  S
O465        C476   1.277       .  A
O465       Cd468   2.088       .  S
Zn466       O477   2.011       .  S
Zn466       O479   2.021       .  S
Zn466       O471   1.941       .  S
O467        C478   1.276       .  A
O467       Cd472   2.082       .  S
Cd468       O470   2.082       .  S
Cd468       O471   2.007       .  S
Cd469       O473   2.063       .  S
Cd469       O482   2.052       .  S
Cd469       O471   1.996       .  S
O470        C480   1.278       .  A
O471       Cd472   2.015       .  S
Cd472       O474   2.082       .  S
O473        C480   1.273       .  A
C475        O479   1.274       .  A
C475        C756   1.475       .  S
C476        C682   1.477       .  S
C478        C664   1.479       .  S
C480        C718   1.476       .  S
C481        O482   1.272       .  A
C481        C736   1.474       .  S
C483        H484   1.110       .  S
C483        C925   1.553   1_455  S
C483       C1360   1.544   1_445  S
C485        H486   1.112       .  S
C485       C1363   1.530       .  S
C485        C928   1.524   1_565  S
C487        C490   1.376       .  D
C487        C846   1.486       .  S
C488       C1355   1.544   1_565  S
C488        C491   1.375       .  D
C488        C862   1.494       .  S
C489        C919   1.552       .  S
C489        C492   1.376       .  D
C489        C826   1.490       .  S
C490        C738   1.484       .  S
C491       C1357   1.529       .  S
C491        C754   1.478       .  S
C492        C921   1.525       .  S
C492        C720   1.483       .  S
O493        C509   1.276       .  A
O493       Zn499   2.037       .  S
C494        O510   1.278       .  A
C494        O507   1.275       .  A
C494        C648   1.481       .  S
O495        C508   1.276       .  A
O495       Cd502   2.074       .  S
O496        C514   1.275       .  A
O496       Cd505   2.077       .  S
O497        C511   1.276       .  A
O497       Cd501   2.085       .  S
O498        C509   1.277       .  A
O498       Cd501   2.076       .  S
Zn499       O510   2.039       .  S
Zn499       O512   2.032       .  S
Zn499       O504   1.955       .  S
O500        C511   1.276       .  A
O500       Cd505   2.077       .  S
Cd501       O503   2.073       .  S
Cd501       O504   2.004       .  S
Cd502       O506   2.071       .  S
Cd502       O515   2.073       .  S
Cd502       O504   2.004       .  S
O503        C513   1.274       .  A
O504       Cd505   2.002       .  S
Cd505       O507   2.073       .  S
O506        C513   1.275       .  A
C508        O512   1.275       .  A
C508        C666   1.481       .  S
C509        C610   1.483       .  S
C511        C628   1.483       .  S
C513        C700   1.477       .  S
C514        O515   1.276       .  A
C514        C684   1.480       .  S
O516        C532   1.276       .  A
O516       Zn522   2.024       .  S
C517        O533   1.277       .  A
C517        O530   1.275       .  A
C517        C574   1.478       .  S
O518        C531   1.266       .  A
O518       Cd525   2.024       .  S
O519        C537   1.274       .  A
O519       Cd528   2.088       .  S
O520        C534   1.280       .  A
O520       Cd524   2.103       .  S
O521        C532   1.280       .  A
O521       Cd524   2.094       .  S
Zn522       O533   2.030       .  S
Zn522       O535   2.054       .  S
Zn522       O527   1.952       .  S
O523        C534   1.277       .  A
O523       Cd528   2.067       .  S
Cd524       O526   2.118       .  S
Cd524       O527   2.017       .  S
Cd525       O529   2.021       .  S
Cd525       O538   2.020       .  S
Cd525       O527   1.966       .  S
O526        C536   1.280       .  A
O527       Cd528   2.005       .  S
Cd528       O530   2.073       .  S
O529        C536   1.266       .  A
C531        O535   1.277       .  A
C531        C792   1.470       .  S
C532        C594   1.481       .  S
C534        C558   1.486       .  S
C536        C774   1.473       .  S
C537        O538   1.268       .  A
C537        C810   1.474       .  S
C539        H540   1.111       .  S
C539        C545   1.533   1_655  S
C539        C980   1.544       .  S
C541        H542   1.111   1_655  S
C541        C983   1.532       .  S
C541        C548   1.545   1_655  S
C543        C546   1.383       .  D
C543        C646   1.488       .  S
C544        C975   1.542   1_565  S
C544        C547   1.374       .  D
C544        C612   1.489       .  S
C545        C548   1.375       .  D
C545        C630   1.486       .  S
C546        C592   1.488       .  S
C547        C977   1.531   1_565  S
C547        C576   1.483       .  S
C548        C556   1.493       .  S
C549        C557   1.491       .  S
C549        C550   1.404       .  A
C549        C554   1.409       .  A
C550        C551   1.397       .  A
C550        H559   1.084       .  S
C551        C552   1.407       .  A
C551        H560   1.082       .  S
C552        C555   1.491       .  S
C552        C553   1.405       .  A
C553        C554   1.405       .  A
C553        H561   1.083       .  S
C554        H562   1.081       .  S
C555        C556   1.345       .  D
C555        H563   1.086       .  S
C556        H564   1.081       .  S
C557        C558   1.351       .  D
C557        H565   1.087       .  S
C558        H566   1.084       .  S
C567        C575   1.489       .  S
C567        C568   1.403       .  A
C567        C572   1.409       .  A
C568        C569   1.398       .  A
C568        H577   1.083       .  S
C569        C570   1.408       .  A
C569        H578   1.080       .  S
C570        C573   1.490       .  S
C570        C571   1.404       .  A
C571        C572   1.399       .  A
C571        H579   1.083       .  S
C572        H580   1.081       .  S
C573        C574   1.348       .  D
C573        H581   1.087       .  S
C574        H582   1.084       .  S
C575        C576   1.344       .  D
C575        H583   1.087       .  S
C576        H584   1.083   1_565  S
C585        C593   1.492       .  S
C585        C586   1.403       .  A
C585        C590   1.410       .  A
C586        C587   1.398       .  A
C586        H595   1.083       .  S
C587        C588   1.409       .  A
C587        H596   1.081       .  S
C588        C591   1.493       .  S
C588        C589   1.404       .  A
C589        C590   1.402       .  A
C589        H597   1.083       .  S
C590        H598   1.081       .  S
C591        C592   1.346       .  D
C592        H600   1.084       .  S
C593        C594   1.347       .  D
C593        H601   1.087       .  S
C594        H602   1.084       .  S
C603        C611   1.490       .  S
C603        C604   1.404       .  A
C603        C608   1.407       .  A
C604        C605   1.404       .  A
C604        H613   1.083   1_565  S
C605        C606   1.409       .  A
C605        H614   1.082       .  S
C606        C609   1.489       .  S
C606        C607   1.403       .  A
C607        C608   1.397       .  A
C607        H615   1.083       .  S
C608        H616   1.083       .  S
C609        C610   1.347       .  D
C609        H617   1.087       .  S
C610        H618   1.085       .  S
C611        C612   1.344       .  D
C611        H619   1.086   1_565  S
C612        H620   1.081       .  S
C621        C629   1.491       .  S
C621        C622   1.405       .  A
C621        C626   1.407       .  A
C622        C623   1.401       .  A
C622        H631   1.083       .  S
C623        C624   1.407       .  A
C623        H632   1.081       .  S
C624        C627   1.492       .  S
C624        C625   1.405       .  A
C625        C626   1.400       .  A
C625        H633   1.083       .  S
C626        H634   1.081       .  S
C627        C628   1.350       .  D
C627        H635   1.087       .  S
C628        H636   1.084       .  S
C629        C630   1.347       .  D
C629        H637   1.087       .  S
C630        H638   1.083       .  S
C639        C647   1.491       .  S
C639        C640   1.403       .  A
C639        C644   1.409       .  A
C640        C641   1.399       .  A
C640        H649   1.084       .  S
C641        C642   1.409       .  A
C641        H650   1.081       .  S
C642        C645   1.493       .  S
C642        C643   1.404       .  A
C643        C644   1.401       .  A
C643        H651   1.083       .  S
C644        H652   1.081       .  S
C645        C646   1.346       .  D
C645        H653   1.086       .  S
C646        H654   1.084       .  S
C647        C648   1.347       .  D
C647        H655   1.087       .  S
C648        H656   1.085       .  S
C657        C665   1.490       .  S
C657        C658   1.404       .  A
C657        C662   1.409   1_565  A
C658        H667   1.083       .  S
C659        C660   1.406       .  A
C659        H668   1.082       .  S
C660        C663   1.489       .  S
C660        C661   1.404       .  A
C661        H669   1.083       .  S
C662        H670   1.081       .  S
C663        C664   1.347       .  D
C663        H671   1.087       .  S
C664        H672   1.085       .  S
C665        C666   1.348       .  D
C665        H673   1.087       .  S
C666        H674   1.085       .  S
C675        C683   1.486       .  S
C675        C676   1.402       .  A
C675        C680   1.408       .  A
C676       C1549   1.397       .  A
C676        H685   1.083       .  S
C677       C1548   1.398       .  A
C677        C678   1.407       .  A
C677        H686   1.082       .  S
C678        C681   1.488       .  S
C678        C679   1.404       .  A
C679       C1552   1.402       .  A
C679        H687   1.083       .  S
C680       C1551   1.402   1_455  A
C680        H688   1.082       .  S
C681        C682   1.346       .  D
C681        H689   1.087       .  S
C682        H690   1.086       .  S
C683        C684   1.346       .  D
C683        H691   1.087       .  S
C684        H692   1.086       .  S
C693        C701   1.482       .  S
C693        C694   1.402       .  A
C693        C698   1.406       .  A
C694        C695   1.399       .  A
C694        H703   1.084       .  S
C695        C696   1.408       .  A
C695        H704   1.082       .  S
C696        C699   1.485       .  S
C696        C697   1.403       .  A
C697        C698   1.398       .  A
C697        H705   1.084       .  S
C698        H706   1.083       .  S
C699        C700   1.346       .  D
C699        H707   1.087       .  S
C700        H708   1.086       .  S
C701        C702   1.343       .  D
C701        H709   1.087       .  S
C702        H710   1.086       .  S
C711        C719   1.486       .  S
C711        C712   1.402       .  A
C711        C716   1.408       .  A
C712        C713   1.399       .  A
C712        H721   1.084       .  S
C713        C714   1.410       .  A
C713        H722   1.080       .  S
C714        C717   1.489       .  S
C714        C715   1.403       .  A
C715        C716   1.397       .  A
C715        H723   1.083       .  S
C716        H724   1.081       .  S
C717        C718   1.345       .  D
C717        H725   1.087       .  S
C718        H726   1.084       .  S
C719        C720   1.344       .  D
C720        H728   1.084       .  S
C729        C737   1.486       .  S
C729        C730   1.402       .  A
C729        C734   1.410       .  A
C730        C731   1.396       .  A
C730        H739   1.084       .  S
C731        C732   1.408       .  A
C731        H740   1.082       .  S
C732        C735   1.487       .  S
C732        C733   1.402       .  A
C733        C734   1.400       .  A
C733        H741   1.084       .  S
C734        H742   1.081       .  S
C735        C736   1.344       .  D
C735        H743   1.087       .  S
C736        H744   1.086       .  S
C737        C738   1.344       .  D
C737        H745   1.087       .  S
C738        H746   1.083       .  S
C747        C755   1.480       .  S
C747        C748   1.402       .  A
C747        C752   1.406       .  A
C748        C749   1.398       .  A
C748        H757   1.083       .  S
C749        C750   1.405       .  A
C749        H758   1.083       .  S
C750        C753   1.477       .  S
C750        C751   1.402       .  A
C751        C752   1.399       .  A
C751        H759   1.083       .  S
C752        H760   1.083       .  S
C753        C754   1.340       .  D
C753        H761   1.087       .  S
C754        H762   1.087       .  S
C755        C756   1.343       .  D
C755        H763   1.087       .  S
C756        H764   1.087       .  S
C765        C773   1.488       .  S
C765       C1638   1.401       .  A
C765        C770   1.410       .  A
C766       C1637   1.400       .  A
C766        C767   1.400       .  A
C766        H775   1.083       .  S
C767        C768   1.412   1_554  A
C767        H776   1.082       .  S
C768        C771   1.490       .  S
C768       C1641   1.400       .  A
C769       C1640   1.400   1_455  A
C769        C770   1.396   1_556  A
C769        H777   1.083       .  S
C770        H778   1.082       .  S
C771        C772   1.341       .  D
C771        H779   1.087       .  S
C772        H780   1.086       .  S
C773        C774   1.340       .  D
C773        H781   1.086       .  S
C774        H782   1.087       .  S
C783        C791   1.487       .  S
C783        C788   1.411       .  A
C784        C785   1.396       .  A
C784        H793   1.083       .  S
C785        C786   1.409       .  A
C785        H794   1.082       .  S
C786        C789   1.483   1_554  S
C787        C788   1.398   1_545  A
C787        H795   1.083   1_544  S
C788        H796   1.081       .  S
C789        C790   1.339       .  D
C789        H797   1.087       .  S
C790        H798   1.087   1_556  S
C791        C792   1.340       .  D
C791        H799   1.087       .  S
C792        H800   1.085       .  S
C801        C809   1.481       .  S
C801        C802   1.405       .  A
C801        C806   1.404       .  A
C802        C803   1.395   1_554  A
C802        H811   1.083   1_554  S
C803        C804   1.405       .  A
C803        H812   1.080       .  S
C804        C807   1.482       .  S
C804        C805   1.405   1_556  A
C805        C806   1.395       .  A
C805        H813   1.083       .  S
C806        H814   1.080       .  S
C807        C808   1.350       .  D
C807        H815   1.087       .  S
C808        H816   1.083       .  S
C809        C810   1.350       .  D
C809        H817   1.087       .  S
C810        H818   1.083       .  S
C819        C827   1.495       .  S
C819        C820   1.404       .  A
C819        C824   1.410       .  A
C820        C821   1.403       .  A
C820        H829   1.083       .  S
C821        C822   1.410       .  A
C821        H830   1.082       .  S
C822        C825   1.492       .  S
C822        C823   1.402       .  A
C823        C824   1.400       .  A
C823        H831   1.083       .  S
C824        H832   1.082       .  S
C825        C826   1.343       .  D
C825        H833   1.086       .  S
C826        H834   1.085       .  S
C827        C828   1.347       .  D
C827        H835   1.086       .  S
C828        H836   1.085       .  S
C837        C845   1.492       .  S
C837        C838   1.405       .  A
C837        C842   1.408       .  A
C838        C839   1.403       .  A
C838        H847   1.083       .  S
C839        C840   1.409       .  A
C839        H848   1.081       .  S
C840        C843   1.491       .  S
C840        C841   1.404       .  A
C841        C842   1.398       .  A
C841        H849   1.084       .  S
C842        H850   1.081       .  S
C843        C844   1.349       .  D
C843        H851   1.087       .  S
C844        H852   1.084       .  S
C845        C846   1.345       .  D
C845        H853   1.087       .  S
C846        H854   1.084       .  S
C855        C863   1.494       .  S
C855        C856   1.406       .  A
C855        C860   1.407       .  A
C856        C857   1.403       .  A
C856        H865   1.083       .  S
C857        C858   1.409       .  A
C857        H866   1.080       .  S
C858        C861   1.493       .  S
C858        C859   1.406       .  A
C859        C860   1.398       .  A
C859        H867   1.084       .  S
C860        H868   1.081       .  S
C861        C862   1.351       .  D
C861        H869   1.086       .  S
C862        H870   1.082       .  S
C863        C864   1.348       .  D
C863        H871   1.087       .  S
C864        H872   1.085       .  S
O873        C889   1.277       .  A
O873       Zn879   2.045       .  S
C874        O890   1.275       .  A
C874        O887   1.282       .  A
C874       C1264   1.481       .  S
O875        C888   1.267       .  A
O875       Cd882   2.029       .  S
O876        C894   1.280       .  A
O876       Cd885   2.115       .  S
O877        C891   1.276       .  A
O877       Cd881   2.072       .  S
O878        C889   1.276       .  A
O878       Cd881   2.067       .  S
Zn879       O890   2.010       .  S
Zn879       O892   2.054       .  S
Zn879       O884   1.948       .  S
O880        C891   1.281       .  A
O880       Cd885   2.104       .  S
Cd881       O883   2.090       .  S
Cd881       O884   2.002       .  S
Cd882       O886   2.025       .  S
Cd882       O895   2.025       .  S
Cd882       O884   1.968       .  S
O883        C893   1.274       .  A
O884       Cd885   2.020       .  S
Cd885       O887   2.112       .  S
O886        C893   1.269       .  A
C888        O892   1.277       .  A
C888       C1226   1.471       .  S
C889       C1280   1.484       .  S
C891       C1300   1.482       .  S
C893       C1244   1.475       .  S
C894        O895   1.267       .  A
C894       C1208   1.473       .  S
O896        C912   1.272       .  A
O896       Zn902   2.009       .  S
C897        O913   1.273       .  A
C897        O910   1.277       .  A
C897       C1138   1.472       .  S
O898        C911   1.273       .  A
O898       Cd905   2.073       .  S
O899        C917   1.278       .  A
O899       Cd908   2.093       .  S
O900        C914   1.274       .  A
O900       Cd904   2.072       .  S
O901        C912   1.276       .  A
O901       Cd904   2.085       .  S
Zn902       O913   2.009       .  S
Zn902       O915   2.015       .  S
Zn902       O907   1.939       .  S
O903        C914   1.276       .  A
O903       Cd908   2.079       .  S
Cd904       O906   2.080       .  S
Cd904       O907   2.005       .  S
Cd905       O909   2.064       .  S
Cd905       O918   2.052       .  S
Cd905       O907   1.997       .  S
O906        C916   1.277       .  A
O907       Cd908   2.013       .  S
Cd908       O910   2.079       .  S
O909        C916   1.273       .  A
C911        O915   1.273       .  A
C911       C1192   1.475       .  S
C912       C1118   1.476       .  S
C914       C1100   1.477       .  S
C916       C1154   1.476       .  S
C917        O918   1.272       .  A
C917       C1172   1.474       .  S
C919        H920   1.110       .  S
C919       C1359   1.547       .  S
C921        H922   1.112       .  S
C921       C1362   1.528       .  S
C923       C1355   1.547       .  S
C923        C926   1.376       .  D
C923       C1282   1.486       .  S
C924        C927   1.375       .  D
C924       C1298   1.495       .  S
C925        C928   1.377       .  D
C925       C1262   1.491       .  S
C926       C1357   1.527   1_545  S
C926       C1174   1.482       .  S
C927       C1190   1.478       .  S
C928       C1156   1.483       .  S
O929        C945   1.277       .  A
O929       Zn935   2.045       .  S
C930        O946   1.279       .  A
C930        O943   1.274       .  A
C930       C1084   1.481       .  S
O931        C944   1.276       .  A
O931       Cd938   2.070       .  S
O932        C950   1.274       .  A
O932       Cd941   2.075       .  S
O933        C947   1.274       .  A
O933       Cd937   2.071       .  S
O934        C945   1.275       .  A
O934       Cd937   2.069       .  S
Zn935       O946   2.049       .  S
Zn935       O948   2.036       .  S
Zn935       O940   1.956       .  S
O936        C947   1.275       .  A
O936       Cd941   2.071       .  S
Cd937       O939   2.068       .  S
Cd937       O940   2.001       .  S
Cd938       O942   2.070       .  S
Cd938       O951   2.075       .  S
Cd938       O940   2.002       .  S
O939        C949   1.273       .  A
O940       Cd941   2.001       .  S
Cd941       O943   2.068       .  S
O942        C949   1.275       .  A
C944        O948   1.276       .  A
C944       C1102   1.480       .  S
C945       C1046   1.483       .  S
C947       C1064   1.477       .  S
C949       C1136   1.475       .  S
C950        O951   1.276       .  A
C950       C1120   1.479       .  S
O952        C968   1.277       .  A
O952       Zn958   2.034       .  S
C953        O969   1.278       .  A
C953        O966   1.275       .  A
C953       C1010   1.481       .  S
O954        C967   1.267       .  A
O954       Cd961   2.029       .  S
O955        C973   1.273       .  A
O955       Cd964   2.085       .  S
O956        C970   1.279       .  A
O956       Cd960   2.101       .  S
O957        C968   1.280       .  A
O957       Cd960   2.094       .  S
Zn958       O969   2.038       .  S
Zn958       O971   2.056       .  S
Zn958       O963   1.954       .  S
O959        C970   1.277       .  A
O959       Cd964   2.066       .  S
Cd960       O962   2.110       .  S
Cd960       O963   2.018       .  S
Cd961       O965   2.026       .  S
Cd961       O974   2.028       .  S
Cd961       O963   1.973       .  S
O962        C972   1.279       .  A
O963       Cd964   2.004       .  S
Cd964       O966   2.073       .  S
O965        C972   1.267       .  A
C967        O971   1.278       .  A
C967       C1228   1.471       .  S
C968       C1030   1.484       .  S
C970        C994   1.486       .  S
C972       C1210   1.472       .  S
C973        O974   1.269       .  A
C973       C1246   1.475       .  S
C975        H976   1.111       .  S
C975        C981   1.530       .  S
C975       C1415   1.541   1_545  S
C977        H978   1.111       .  S
C977       C1418   1.541   1_545  S
C977        C984   1.542       .  S
C979       C1411   1.540       .  S
C979        C982   1.383       .  D
C979       C1082   1.486       .  S
C980        C983   1.375       .  D
C980       C1048   1.491       .  S
C981        C984   1.375       .  D
C981       C1066   1.482       .  S
C982       C1413   1.541       .  S
C982       C1028   1.490       .  S
C983       C1012   1.486       .  S
C984        C992   1.489       .  S
C985        C993   1.491       .  S
C985        C986   1.404       .  A
C985        C990   1.410       .  A
C986        C987   1.395       .  A
C986        H995   1.084       .  S
C987        C988   1.405       .  A
C987        H996   1.083       .  S
C988        C991   1.489       .  S
C988        C989   1.404       .  A
C989        C990   1.405       .  A
C989        H997   1.083       .  S
C990        H998   1.081       .  S
C991        C992   1.344       .  D
C991        H999   1.086       .  S
C992       H1000   1.082       .  S
C993        C994   1.350       .  D
C993       H1001   1.087       .  S
C994       H1002   1.084       .  S
C1003      C1011   1.491       .  S
C1003      C1004   1.404       .  A
C1003      C1008   1.408       .  A
C1004      C1005   1.400       .  A
C1004      H1013   1.083       .  S
C1005      C1006   1.409       .  A
C1005      H1014   1.080       .  S
C1006      C1009   1.492       .  S
C1006      C1007   1.404       .  A
C1007      C1008   1.399       .  A
C1007      H1015   1.083       .  S
C1008      H1016   1.081       .  S
C1009      C1010   1.348       .  D
C1009      H1017   1.087       .  S
C1010      H1018   1.084       .  S
C1011      C1012   1.346       .  D
C1011      H1019   1.087       .  S
C1012      H1020   1.083       .  S
C1021      C1029   1.495       .  S
C1021      C1022   1.404       .  A
C1021      C1026   1.410       .  A
C1022      C1023   1.400       .  A
C1022      H1031   1.083       .  S
C1023      C1024   1.409       .  A
C1023      H1032   1.081       .  S
C1024      C1027   1.495       .  S
C1024      C1025   1.404       .  A
C1025      C1026   1.403       .  A
C1025      H1033   1.083       .  S
C1026      H1034   1.081       .  S
C1027      C1028   1.347       .  D
C1027      H1471   1.086       .  S
C1028      H1036   1.084       .  S
C1029      C1030   1.349       .  D
C1029      H1037   1.087       .  S
C1030      H1038   1.084       .  S
H1035      C1463   1.086       .  S
C1039      C1047   1.489       .  S
C1039      C1040   1.403       .  A
C1039      C1044   1.407       .  A
C1040      C1041   1.403       .  A
C1040      H1049   1.083       .  S
C1041      C1042   1.409       .  A
C1041      H1050   1.082       .  S
C1042      C1045   1.489       .  S
C1042      C1043   1.404       .  A
C1043      C1044   1.399       .  A
C1043      H1051   1.083       .  S
C1044      H1052   1.083       .  S
C1045      C1046   1.349       .  D
C1045      H1053   1.087       .  S
C1046      H1054   1.085       .  S
C1047      C1048   1.344       .  D
C1047      H1055   1.086       .  S
C1048      H1056   1.082       .  S
C1057      C1065   1.488       .  S
C1057      C1058   1.403       .  A
C1057      C1062   1.408       .  A
C1058      C1059   1.398       .  A
C1058      H1067   1.083       .  S
C1059      C1060   1.409       .  A
C1059      H1068   1.079       .  S
C1060      C1063   1.491       .  S
C1060      C1061   1.405       .  A
C1061      C1062   1.399       .  A
C1061      H1069   1.083       .  S
C1062      H1070   1.080       .  S
C1063      C1064   1.348       .  D
C1063      H1071   1.087       .  S
C1064      H1072   1.082       .  S
C1065      C1066   1.344       .  D
C1065      H1073   1.087       .  S
C1066      H1074   1.083       .  S
C1075      C1083   1.493       .  S
C1075      C1076   1.403       .  A
C1075      C1080   1.410       .  A
C1076      C1077   1.398       .  A
C1076      H1085   1.083       .  S
C1077      C1078   1.409       .  A
C1077      H1086   1.081       .  S
C1078      C1081   1.491       .  S
C1078      C1079   1.403       .  A
C1079      C1080   1.402       .  A
C1079      H1087   1.083       .  S
C1080      H1088   1.081       .  S
C1081      C1082   1.346       .  D
C1081      H1089   1.086       .  S
C1082      H1090   1.084       .  S
C1083      C1084   1.346       .  D
C1083      H1091   1.087       .  S
C1084      H1092   1.084       .  S
C1093      C1101   1.488       .  S
C1093      C1094   1.404       .  A
C1093      C1098   1.408       .  A
C1094      C1531   1.398       .  A
C1094      H1103   1.083       .  S
C1095      C1530   1.397   1_545  A
C1095      C1096   1.406       .  A
C1095      H1104   1.082       .  S
C1096      C1099   1.486       .  S
C1096      C1097   1.404       .  A
C1097      C1534   1.401       .  A
C1097      H1105   1.083       .  S
C1098      C1533   1.401       .  A
C1098      H1106   1.082       .  S
C1099      C1100   1.346       .  D
C1099      H1107   1.087       .  S
C1100      H1108   1.086       .  S
C1101      C1102   1.347       .  D
C1101      H1109   1.087       .  S
C1102      H1110   1.085       .  S
C1111      C1119   1.485       .  S
C1111      C1112   1.402       .  A
C1111      C1116   1.408       .  A
C1112      H1121   1.083       .  S
C1113      C1114   1.407   1_455  A
C1113      H1122   1.082       .  S
C1114      C1117   1.486       .  S
C1114      C1115   1.403       .  A
C1115      H1123   1.083       .  S
C1116      H1124   1.082       .  S
C1117      C1118   1.345       .  D
C1117      H1125   1.087       .  S
C1118      H1126   1.086       .  S
C1119      C1120   1.346       .  D
C1119      H1127   1.087       .  S
C1120      H1128   1.086       .  S
C1129      C1137   1.482       .  S
C1129      C1130   1.402       .  A
C1129      C1134   1.406       .  A
C1130      C1131   1.398       .  A
C1130      H1139   1.084       .  S
C1131      C1132   1.408       .  A
C1131      H1140   1.082       .  S
C1132      C1135   1.483       .  S
C1132      C1133   1.402       .  A
C1133      C1134   1.397       .  A
C1133      H1141   1.084       .  S
C1134      H1142   1.082       .  S
C1135      C1136   1.344       .  D
C1135      H1143   1.087       .  S
C1136      H1144   1.086       .  S
C1137      C1138   1.343       .  D
C1137      H1145   1.087       .  S
C1138      H1146   1.086       .  S
C1147      C1155   1.487       .  S
C1147      C1148   1.403       .  A
C1147      C1152   1.408       .  A
C1148      C1149   1.399       .  A
C1148      H1157   1.084       .  S
C1149      C1150   1.409       .  A
C1149      H1158   1.080       .  S
C1150      C1153   1.488       .  S
C1150      C1151   1.402       .  A
C1151      C1152   1.396       .  A
C1151      H1159   1.083       .  S
C1152      H1160   1.081       .  S
C1153      C1154   1.345       .  D
C1153      H1161   1.087       .  S
C1154      H1162   1.084       .  S
C1155      C1156   1.344       .  D
C1155      H1599   1.087       .  S
C1156      H1164   1.083       .  S
H1163      C1591   1.086       .  S
C1165      C1173   1.487       .  S
C1165      C1166   1.401       .  A
C1165      C1170   1.411       .  A
C1166      C1167   1.395       .  A
C1166      H1175   1.084       .  S
C1167      C1168   1.408       .  A
C1167      H1176   1.082       .  S
C1168      C1171   1.487       .  S
C1168      C1169   1.402       .  A
C1169      C1170   1.400       .  A
C1169      H1177   1.084       .  S
C1170      H1178   1.080       .  S
C1171      C1172   1.344       .  D
C1171      H1179   1.087       .  S
C1172      H1180   1.086       .  S
C1173      C1174   1.343       .  D
C1173      H1181   1.087       .  S
C1174      H1182   1.083       .  S
C1183      C1191   1.478       .  S
C1183      C1184   1.402       .  A
C1183      C1188   1.406       .  A
C1184      C1185   1.397       .  A
C1184      H1193   1.083       .  S
C1185      C1186   1.404       .  A
C1185      H1194   1.083       .  S
C1186      C1189   1.476       .  S
C1186      C1187   1.402       .  A
C1187      C1188   1.399       .  A
C1187      H1195   1.083       .  S
C1188      H1196   1.083       .  S
C1189      C1190   1.340       .  D
C1189      H1197   1.087       .  S
C1190      H1198   1.087       .  S
C1191      C1192   1.343       .  D
C1191      H1199   1.087       .  S
C1192      H1200   1.087       .  S
C1201      C1209   1.485       .  S
C1201      C1206   1.408       .  A
C1202      C1203   1.399   1_455  A
C1202      H1211   1.083   1_455  S
C1203      C1204   1.413   1_554  A
C1203      H1212   1.081       .  S
C1204      C1207   1.492       .  S
C1205      C1206   1.396   1_556  A
C1205      H1213   1.083       .  S
C1206      H1214   1.083       .  S
C1207      C1208   1.341       .  D
C1207      H1215   1.087       .  S
C1208      H1216   1.084       .  S
C1209      C1210   1.340       .  D
C1209      H1217   1.086       .  S
C1210      H1218   1.087       .  S
C1219      C1227   1.486       .  S
C1219      C1656   1.401       .  A
C1219      C1224   1.410       .  A
C1220      C1655   1.400   1_545  A
C1220      C1221   1.396       .  A
C1220      H1229   1.083       .  S
C1221      C1222   1.409       .  A
C1221      H1230   1.082       .  S
C1222      C1225   1.484   1_554  S
C1222      C1659   1.400       .  A
C1223      C1658   1.400       .  A
C1223      C1224   1.398       .  A
C1223      H1231   1.083   1_554  S
C1224      H1232   1.082       .  S
C1225      C1226   1.340       .  D
C1225      H1233   1.087       .  S
C1226      H1234   1.087   1_556  S
C1227      C1228   1.341       .  D
C1227      H1235   1.087       .  S
C1228      H1236   1.085       .  S
C1237      C1245   1.484       .  S
C1237      C1238   1.405       .  A
C1237      C1242   1.405       .  A
C1238      C1239   1.396   1_554  A
C1238      H1247   1.083   1_554  S
C1239      C1240   1.405       .  A
C1239      H1248   1.080       .  S
C1240      C1243   1.483       .  S
C1240      C1241   1.405   1_556  A
C1241      C1242   1.395       .  A
C1241      H1249   1.083       .  S
C1242      H1250   1.080       .  S
C1243      C1244   1.350       .  D
C1243      H1251   1.087       .  S
C1244      H1252   1.083       .  S
C1245      C1246   1.349       .  D
C1245      H1253   1.087       .  S
C1246      H1254   1.083       .  S
C1255      C1263   1.494       .  S
C1255      C1256   1.403       .  A
C1255      C1260   1.409       .  A
C1256      C1257   1.403       .  A
C1256      H1265   1.083       .  S
C1257      C1258   1.411       .  A
C1257      H1266   1.082       .  S
C1258      C1261   1.494       .  S
C1258      C1259   1.403       .  A
C1259      C1260   1.400       .  A
C1259      H1267   1.083       .  S
C1260      H1268   1.082       .  S
C1261      C1262   1.344       .  D
C1261      H1269   1.086       .  S
C1262      H1270   1.084       .  S
C1263      C1264   1.346       .  D
C1263      H1271   1.086       .  S
C1264      H1272   1.086       .  S
C1273      C1281   1.490       .  S
C1273      C1274   1.404       .  A
C1273      C1278   1.407       .  A
C1274      C1275   1.402       .  A
C1274      H1283   1.083       .  S
C1275      C1276   1.409       .  A
C1275      H1284   1.081       .  S
C1276      C1279   1.492       .  S
C1276      C1277   1.405       .  A
C1277      C1278   1.398       .  A
C1277      H1285   1.084       .  S
C1278      H1286   1.082       .  S
C1279      C1280   1.350       .  D
C1279      H1287   1.087       .  S
C1280      H1288   1.084       .  S
C1281      C1282   1.345       .  D
C1281      H1289   1.087       .  S
C1282      H1290   1.085       .  S
C1291      C1299   1.494       .  S
C1291      C1292   1.405       .  A
C1291      C1296   1.407       .  A
C1292      C1293   1.403       .  A
C1292      H1301   1.083       .  S
C1293      C1294   1.408       .  A
C1293      H1302   1.080       .  S
C1294      C1297   1.494       .  S
C1294      C1295   1.407       .  A
C1295      C1296   1.400       .  A
C1295      H1303   1.084       .  S
C1296      H1304   1.081       .  S
C1297      C1298   1.352       .  D
C1297      H1305   1.086       .  S
C1298      H1306   1.082       .  S
C1299      C1300   1.348       .  D
C1299      H1307   1.087       .  S
C1300      H1308   1.085       .  S
O1309      C1325   1.277       .  A
O1309     Zn1315   2.043       .  S
C1310      O1326   1.275       .  A
C1310      O1323   1.282       .  A
C1310      C1700   1.483       .  S
O1311      C1324   1.267       .  A
O1311     Cd1318   2.029       .  S
O1312      C1330   1.280       .  A
O1312     Cd1321   2.114       .  S
O1313      C1327   1.276       .  A
O1313     Cd1317   2.070       .  S
O1314      C1325   1.276       .  A
O1314     Cd1317   2.070       .  S
Zn1315     O1326   2.015       .  S
Zn1315     O1328   2.053       .  S
Zn1315     O1320   1.948       .  S
O1316      C1327   1.281       .  A
O1316     Cd1321   2.103       .  S
Cd1317     O1319   2.092       .  S
Cd1317     O1320   2.004       .  S
Cd1318     O1322   2.024       .  S
Cd1318     O1331   2.028       .  S
Cd1318     O1320   1.971       .  S
O1319      C1329   1.274       .  A
O1320     Cd1321   2.021       .  S
Cd1321     O1323   2.114       .  S
O1322      C1329   1.268       .  A
C1324      O1328   1.277       .  A
C1324      C1662   1.471       .  S
C1325      C1716   1.483       .  S
C1327      C1736   1.481       .  S
C1329      C1680   1.476       .  S
C1330      O1331   1.268       .  A
C1330      C1644   1.474       .  S
O1332      C1348   1.273       .  A
O1332     Zn1338   2.011       .  S
C1333      O1349   1.272       .  A
C1333      O1346   1.277       .  A
C1333      C1574   1.473       .  S
O1334      C1347   1.272       .  A
O1334     Cd1341   2.069       .  S
O1335      C1353   1.278       .  A
O1335     Cd1344   2.093       .  S
O1336      C1350   1.274       .  A
O1336     Cd1340   2.069       .  S
O1337      C1348   1.277       .  A
O1337     Cd1340   2.088       .  S
Zn1338     O1349   2.007       .  S
Zn1338     O1351   2.016       .  S
Zn1338     O1343   1.939       .  S
O1339      C1350   1.277       .  A
O1339     Cd1344   2.080       .  S
Cd1340     O1342   2.083       .  S
Cd1340     O1343   2.006       .  S
Cd1341     O1345   2.062       .  S
Cd1341     O1354   2.053       .  S
Cd1341     O1343   1.995       .  S
O1342      C1352   1.277       .  A
O1343     Cd1344   2.014       .  S
Cd1344     O1346   2.082       .  S
O1345      C1352   1.273       .  A
C1347      O1351   1.273       .  A
C1347      C1628   1.474       .  S
C1348      C1554   1.476       .  S
C1350      C1536   1.477       .  S
C1352      C1590   1.475       .  S
C1353      O1354   1.272       .  A
C1353      C1608   1.475       .  S
C1355      H1356   1.110       .  S
C1357      H1358   1.112       .  S
C1359      C1362   1.376       .  D
C1359      C1718   1.486       .  S
C1360      C1363   1.375       .  D
C1360      C1734   1.496       .  S
C1361      C1364   1.377       .  D
C1361      C1698   1.491       .  S
C1362      C1610   1.485       .  S
C1363      C1626   1.478       .  S
C1364      C1592   1.482       .  S
O1365      C1381   1.276       .  A
O1365     Zn1371   2.036       .  S
C1366      O1382   1.278       .  A
C1366      O1379   1.275       .  A
C1366      C1520   1.480       .  S
O1367      C1380   1.276       .  A
O1367     Cd1374   2.074       .  S
O1368      C1386   1.274       .  A
O1368     Cd1377   2.076       .  S
O1369      C1383   1.275       .  A
O1369     Cd1373   2.081       .  S
O1370      C1381   1.277       .  A
O1370     Cd1373   2.077       .  S
Zn1371     O1382   2.037       .  S
Zn1371     O1384   2.026       .  S
Zn1371     O1376   1.954       .  S
O1372      C1383   1.276       .  A
O1372     Cd1377   2.074       .  S
Cd1373     O1375   2.072       .  S
Cd1373     O1376   2.004       .  S
Cd1374     O1378   2.071       .  S
Cd1374     O1387   2.078       .  S
Cd1374     O1376   2.004       .  S
O1375      C1385   1.274       .  A
O1376     Cd1377   2.000       .  S
Cd1377     O1379   2.071       .  S
O1378      C1385   1.276       .  A
C1380      O1384   1.274       .  A
C1380      C1538   1.479       .  S
C1381      C1482   1.483       .  S
C1383      C1500   1.480       .  S
C1385      C1572   1.477       .  S
C1386      O1387   1.276       .  A
C1386      C1556   1.480       .  S
O1388      C1404   1.277       .  A
O1388     Zn1394   2.028       .  S
C1389      O1405   1.277       .  A
C1389      O1402   1.275       .  A
C1389      C1446   1.478       .  S
O1390      C1403   1.267       .  A
O1390     Cd1397   2.027       .  S
O1391      C1409   1.274       .  A
O1391     Cd1400   2.091       .  S
O1392      C1406   1.280       .  A
O1392     Cd1396   2.103       .  S
O1393      C1404   1.281       .  A
O1393     Cd1396   2.097       .  S
Zn1394     O1405   2.030       .  S
Zn1394     O1407   2.056       .  S
Zn1394     O1399   1.951       .  S
O1395      C1406   1.277       .  A
O1395     Cd1400   2.067       .  S
Cd1396     O1398   2.117       .  S
Cd1396     O1399   2.016       .  S
Cd1397     O1401   2.022       .  S
Cd1397     O1410   2.023       .  S
Cd1397     O1399   1.967       .  S
O1398      C1408   1.280       .  A
O1399     Cd1400   2.006       .  S
Cd1400     O1402   2.074       .  S
O1401      C1408   1.267       .  A
C1403      O1407   1.278       .  A
C1403      C1664   1.471       .  S
C1404      C1466   1.483       .  S
C1406      C1430   1.486       .  S
C1408      C1646   1.473       .  S
C1409      O1410   1.268       .  A
C1409      C1682   1.475       .  S
C1411      H1412   1.111       .  S
C1411      C1417   1.531       .  S
C1413      H1414   1.110       .  S
C1413      C1420   1.545       .  S
C1415      C1418   1.383       .  D
C1415      C1518   1.487       .  S
C1416      C1419   1.375       .  D
C1416      C1484   1.491       .  S
C1417      C1420   1.375       .  D
C1417      C1502   1.484       .  S
C1418      C1464   1.489       .  S
C1419      C1448   1.482       .  S
C1420      C1428   1.494       .  S
C1421      C1429   1.491       .  S
C1421      C1422   1.404       .  A
C1421      C1426   1.409       .  A
C1422      C1423   1.397       .  A
C1422      H1431   1.084       .  S
C1423      C1424   1.407       .  A
C1423      H1432   1.083       .  S
C1424      C1427   1.491       .  S
C1424      C1425   1.405       .  A
C1425      C1426   1.405       .  A
C1425      H1433   1.083       .  S
C1426      H1434   1.081       .  S
C1427      C1428   1.345       .  D
C1427      H1435   1.086       .  S
C1428      H1436   1.082       .  S
C1429      C1430   1.350       .  D
C1429      H1437   1.087       .  S
C1430      H1438   1.085       .  S
C1439      C1447   1.485       .  S
C1439      C1440   1.404       .  A
C1439      C1444   1.406       .  A
C1440      C1441   1.398       .  A
C1440      H1449   1.084       .  S
C1441      C1442   1.407       .  A
C1441      H1450   1.081       .  S
C1442      C1445   1.488       .  S
C1442      C1443   1.405       .  A
C1443      C1444   1.399       .  A
C1443      H1451   1.083       .  S
C1444      H1452   1.082       .  S
C1445      C1446   1.347       .  D
C1445      H1453   1.087       .  S
C1446      H1454   1.085       .  S
C1447      C1448   1.344       .  D
C1447      H1455   1.087       .  S
C1448      H1456   1.084   1_565  S
C1457      C1465   1.495       .  S
C1457      C1458   1.404       .  A
C1457      C1462   1.410       .  A
C1458      C1459   1.399       .  A
C1458      H1467   1.083       .  S
C1459      C1460   1.409       .  A
C1459      H1468   1.081       .  S
C1460      C1463   1.494       .  S
C1460      C1461   1.404       .  A
C1461      C1462   1.403       .  A
C1461      H1469   1.083       .  S
C1462      H1470   1.081       .  S
C1463      C1464   1.346       .  D
C1464      H1472   1.084       .  S
C1465      C1466   1.348       .  D
C1465      H1473   1.087       .  S
C1466      H1474   1.084       .  S
C1475      C1483   1.490       .  S
C1475      C1476   1.404       .  A
C1475      C1480   1.407       .  A
C1476      C1477   1.404       .  A
C1476      H1485   1.083       .  S
C1477      C1478   1.410       .  A
C1477      H1486   1.082       .  S
C1478      C1481   1.489       .  S
C1478      C1479   1.402       .  A
C1479      C1480   1.396       .  A
C1479      H1487   1.083       .  S
C1480      H1488   1.083       .  S
C1481      C1482   1.347       .  D
C1481      H1489   1.087       .  S
C1482      H1490   1.085       .  S
C1483      C1484   1.344       .  D
C1483      H1491   1.086       .  S
C1484      H1492   1.080       .  S
C1493      C1501   1.490       .  S
C1493      C1494   1.404       .  A
C1493      C1498   1.408       .  A
C1494      C1495   1.399       .  A
C1494      H1503   1.083       .  S
C1495      C1496   1.407       .  A
C1495      H1504   1.080       .  S
C1496      C1499   1.491       .  S
C1496      C1497   1.405       .  A
C1497      C1498   1.400       .  A
C1497      H1505   1.083       .  S
C1498      H1506   1.081       .  S
C1499      C1500   1.349       .  D
C1499      H1507   1.087       .  S
C1500      H1508   1.084       .  S
C1501      C1502   1.346       .  D
C1501      H1509   1.088       .  S
C1502      H1510   1.083       .  S
C1511      C1519   1.491       .  S
C1511      C1512   1.403       .  A
C1511      C1516   1.409       .  A
C1512      C1513   1.399       .  A
C1512      H1521   1.084       .  S
C1513      C1514   1.410       .  A
C1513      H1522   1.081       .  S
C1514      C1517   1.492       .  S
C1514      C1515   1.403       .  A
C1515      C1516   1.400       .  A
C1515      H1523   1.083       .  S
C1516      H1524   1.081       .  S
C1517      C1518   1.345       .  D
C1517      H1525   1.086       .  S
C1518      H1526   1.084       .  S
C1519      C1520   1.347       .  D
C1519      H1527   1.087       .  S
C1520      H1528   1.085       .  S
C1529      C1537   1.489       .  S
C1529      C1530   1.404       .  A
C1529      C1534   1.409   1_565  A
C1530      H1539   1.083       .  S
C1531      C1532   1.407       .  A
C1531      H1540   1.082       .  S
C1532      C1535   1.487       .  S
C1532      C1533   1.404       .  A
C1533      H1541   1.083       .  S
C1534      H1542   1.081       .  S
C1535      C1536   1.346       .  D
C1535      H1543   1.087       .  S
C1536      H1544   1.085       .  S
C1537      C1538   1.346       .  D
C1537      H1545   1.087       .  S
C1538      H1546   1.085       .  S
C1547      C1555   1.487       .  S
C1547      C1548   1.403       .  A
C1547      C1552   1.408       .  A
C1548      H1557   1.083       .  S
C1549      C1550   1.407   1_455  A
C1549      H1558   1.082       .  S
C1550      C1553   1.487       .  S
C1550      C1551   1.404       .  A
C1551      H1559   1.083       .  S
C1552      H1560   1.082       .  S
C1553      C1554   1.346       .  D
C1553      H1561   1.087       .  S
C1554      H1562   1.086       .  S
C1555      C1556   1.346       .  D
C1555      H1563   1.087       .  S
C1556      H1564   1.086       .  S
C1565      C1573   1.482       .  S
C1565      C1566   1.402       .  A
C1565      C1570   1.406       .  A
C1566      C1567   1.398       .  A
C1566      H1575   1.084       .  S
C1567      C1568   1.408       .  A
C1567      H1576   1.082       .  S
C1568      C1571   1.484       .  S
C1568      C1569   1.403       .  A
C1569      C1570   1.398       .  A
C1569      H1577   1.084       .  S
C1570      H1578   1.083       .  S
C1571      C1572   1.345       .  D
C1571      H1579   1.087       .  S
C1572      H1580   1.086       .  S
C1573      C1574   1.342       .  D
C1573      H1581   1.087       .  S
C1574      H1582   1.086       .  S
C1583      C1591   1.485       .  S
C1583      C1584   1.402       .  A
C1583      C1588   1.408       .  A
C1584      C1585   1.399       .  A
C1584      H1593   1.084       .  S
C1585      C1586   1.410       .  A
C1585      H1594   1.080       .  S
C1586      C1589   1.489       .  S
C1586      C1587   1.403       .  A
C1587      C1588   1.397       .  A
C1587      H1595   1.083       .  S
C1588      H1596   1.081       .  S
C1589      C1590   1.345       .  D
C1589      H1597   1.087       .  S
C1590      H1598   1.084       .  S
C1591      C1592   1.344       .  D
C1592      H1600   1.084       .  S
C1601      C1609   1.488       .  S
C1601      C1602   1.402       .  A
C1601      C1606   1.410       .  A
C1602      C1603   1.396       .  A
C1602      H1611   1.084       .  S
C1603      C1604   1.408       .  A
C1603      H1612   1.082       .  S
C1604      C1607   1.488       .  S
C1604      C1605   1.402       .  A
C1605      C1606   1.400       .  A
C1605      H1613   1.084       .  S
C1606      H1614   1.080       .  S
C1607      C1608   1.344       .  D
C1607      H1615   1.087       .  S
C1608      H1616   1.085       .  S
C1609      C1610   1.344       .  D
C1609      H1617   1.087       .  S
C1610      H1618   1.083       .  S
C1619      C1627   1.478       .  S
C1619      C1620   1.402       .  A
C1619      C1624   1.406       .  A
C1620      C1621   1.398       .  A
C1620      H1629   1.083       .  S
C1621      C1622   1.404       .  A
C1621      H1630   1.083       .  S
C1622      C1625   1.476       .  S
C1622      C1623   1.402       .  A
C1623      C1624   1.399       .  A
C1623      H1631   1.083       .  S
C1624      H1632   1.083       .  S
C1625      C1626   1.340       .  D
C1625      H1633   1.087       .  S
C1626      H1634   1.087       .  S
C1627      C1628   1.343       .  D
C1627      H1635   1.087       .  S
C1628      H1636   1.087       .  S
C1637      C1645   1.487       .  S
C1637      C1642   1.410       .  A
C1638      C1639   1.401   1_455  A
C1638      H1647   1.083   1_455  S
C1639      C1640   1.412   1_554  A
C1639      H1648   1.082       .  S
C1640      C1643   1.489       .  S
C1641      C1642   1.397   1_556  A
C1641      H1649   1.083       .  S
C1642      H1650   1.082       .  S
C1643      C1644   1.341       .  D
C1643      H1651   1.087       .  S
C1644      H1652   1.086       .  S
C1645      C1646   1.340       .  D
C1645      H1653   1.086       .  S
C1646      H1654   1.087       .  S
C1655      C1663   1.487       .  S
C1655      C1660   1.411       .  A
C1656      C1657   1.397       .  A
C1656      H1665   1.083       .  S
C1657      C1658   1.409       .  A
C1657      H1666   1.082       .  S
C1658      C1661   1.484   1_554  S
C1659      C1660   1.399   1_545  A
C1659      H1667   1.083   1_554  S
C1660      H1668   1.082       .  S
C1661      C1662   1.340       .  D
C1661      H1669   1.087       .  S
C1662      H1670   1.086   1_556  S
C1663      C1664   1.341       .  D
C1663      H1671   1.087       .  S
C1664      H1672   1.085       .  S
C1673      C1681   1.481       .  S
C1673      C1674   1.405       .  A
C1673      C1678   1.404       .  A
C1674      C1675   1.396   1_554  A
C1674      H1683   1.083   1_554  S
C1675      C1676   1.405       .  A
C1675      H1684   1.080       .  S
C1676      C1679   1.483       .  S
C1676      C1677   1.406   1_556  A
C1677      C1678   1.395       .  A
C1677      H1685   1.083       .  S
C1678      H1686   1.081       .  S
C1679      C1680   1.350       .  D
C1679      H1687   1.087       .  S
C1680      H1688   1.083       .  S
C1681      C1682   1.350       .  D
C1681      H1689   1.087       .  S
C1682      H1690   1.084       .  S
C1691      C1699   1.496       .  S
C1691      C1692   1.404       .  A
C1691      C1696   1.410       .  A
C1692      C1693   1.403       .  A
C1692      H1701   1.083       .  S
C1693      C1694   1.409       .  A
C1693      H1702   1.082       .  S
C1694      C1697   1.493       .  S
C1694      C1695   1.403       .  A
C1695      C1696   1.401       .  A
C1695      H1703   1.083       .  S
C1696      H1704   1.082       .  S
C1697      C1698   1.344       .  D
C1697      H1705   1.086       .  S
C1698      H1706   1.085       .  S
C1699      C1700   1.347       .  D
C1699      H1707   1.086       .  S
C1700      H1708   1.085       .  S
C1709      C1717   1.492       .  S
C1709      C1710   1.405       .  A
C1709      C1714   1.408       .  A
C1710      C1711   1.403       .  A
C1710      H1719   1.083       .  S
C1711      C1712   1.409       .  A
C1711      H1720   1.081       .  S
C1712      C1715   1.492       .  S
C1712      C1713   1.404       .  A
C1713      C1714   1.398       .  A
C1713      H1721   1.084       .  S
C1714      H1722   1.081       .  S
C1715      C1716   1.349       .  D
C1715      H1723   1.087       .  S
C1716      H1724   1.084       .  S
C1717      C1718   1.345       .  D
C1717      H1725   1.087       .  S
C1718      H1726   1.084       .  S
C1727      C1735   1.496       .  S
C1727      C1728   1.406       .  A
C1727      C1732   1.407       .  A
C1728      C1729   1.405       .  A
C1728      H1737   1.083       .  S
C1729      C1730   1.409       .  A
C1729      H1738   1.080       .  S
C1730      C1733   1.494       .  S
C1730      C1731   1.406       .  A
C1731      C1732   1.398       .  A
C1731      H1739   1.084       .  S
C1732      H1740   1.081       .  S
C1733      C1734   1.351       .  D
C1733      H1741   1.086       .  S
C1734      H1742   1.083       .  S
C1735      C1736   1.349       .  D
C1735      H1743   1.087       .  S
C1736      H1744   1.084       .  S
