geometry optimzed in LAMMPS
_audit_creation_date              2020-11-30 
_audit_creation_method            'lammps2cif' 
_symmetry_space_group_name_H-M    'P1' 
_symmetry_Int_Tables_number       1 
_symmetry_cell_setting            triclinic 
loop_ 
_symmetry_equiv_pos_as_xyz 
  x,y,z 
_cell_length_a                    42.71824918 
_cell_length_b                    42.534495598535884 
_cell_length_c                    74.07380106134256 
_cell_angle_alpha                 89.86827853481834 
_cell_angle_beta                  89.95835511769128 
_cell_angle_gamma                 90.0160003478771 
loop_ 
_atom_site_label 
_atom_site_type_symbol 
_atom_site_fract_x 
_atom_site_fract_y 
_atom_site_fract_z 
_atom_site_charge 
O1          O  0.48098901  0.41315508  0.89655548    -0.85800
O2          O  0.04257075  0.39452356  0.89477638    -0.82800
C3          C  0.05588898  0.41309818  0.90569297     0.97700
O4          O  0.05142322  0.41040608  0.92244807    -0.82800
O5          O  0.02282162  0.39487967  0.95457624    -0.85500
C6          C  0.50061536  0.41446006  0.95561942     1.02200
O7          O  0.47773435  0.41262227  0.94497990    -0.78200
O8          O  0.44330706  0.39929230  0.91501146    -0.78400
C9          C  0.45429757  0.41795447  0.90326502     1.02200
O10         O  0.46048206  0.34861340  0.89475709    -0.85800
O11         O  0.02272605  0.33017724  0.89619342    -0.82800
C12         C  0.04995441  0.32635415  0.90242377     0.97700
O13         O  0.06034241  0.34453892  0.91455718    -0.82800
O14         O  0.02611838  0.32976480  0.94475569    -0.85500
C15         C  0.50281209  0.32736856  0.95512669     1.02200
O16         O  0.48075032  0.34715983  0.95427676    -0.78300
O17         O  0.45132465  0.33311389  0.92248882    -0.78400
C18         C  0.44660474  0.33048175  0.90578470     1.02200
Cr19       Cr  0.50162290  0.37156104  0.89737636     1.93700
Cr20       Cr  0.03751378  0.37001704  0.93317166     1.93200
Cr21       Cr  0.46597450  0.37289203  0.93326305     1.39100
O22         O  0.50169289  0.37136263  0.92126540    -1.23500
O23         O  0.27663912  0.08172844  0.86383087    -0.85800
O24         O  0.29077716  0.14498290  0.86236462    -0.82800
C25         C  0.29338666  0.17237330  0.85595381     0.97700
O26         O  0.27559040  0.18143469  0.84325901    -0.82800
O27         O  0.29196494  0.14846261  0.81274273    -0.85500
C28         C  0.29626901  0.12523025  0.80248895     1.02200
O29         O  0.27914571  0.10102927  0.80393970    -0.78200
O30         O  0.29442748  0.07368979  0.83651185    -0.78400
C31         C  0.29679926  0.06981929  0.85334362     1.02200
O32         O  0.21131096  0.09748725  0.86092279    -0.85800
O33         O  0.22583185  0.16046953  0.86306307    -0.82800
C34         C  0.20726528  0.17340597  0.85203008     0.97700
O35         O  0.21049682  0.16897593  0.83532481    -0.82800
O36         O  0.22704090  0.14037280  0.80360172    -0.85500
C37         C  0.20932083  0.11657091  0.80250427     1.02200
O38         O  0.21384867  0.09300407  0.81253779    -0.78300
O39         O  0.22902806  0.06024655  0.84329884    -0.78400
C40         C  0.20926839  0.06993743  0.85479763     1.02200
Cr41       Cr  0.25120003  0.12107146  0.86064432     1.93700
Cr42       Cr  0.25138573  0.15698422  0.82468198     1.93200
Cr43       Cr  0.25403497  0.08478169  0.82498150     1.39100
O44         O  0.25232359  0.12099815  0.83672484    -1.23500
O45         O  0.29303742  0.40049129  0.61182589    -0.85800
O46         O  0.23036432  0.41439102  0.61083313    -0.82800
C47         C  0.20282972  0.41676800  0.60483631     0.97700
O48         O  0.19323510  0.39839295  0.59258444    -0.82800
O49         O  0.22594354  0.41544380  0.56152596    -0.85500
C50         C  0.24900780  0.41932460  0.55104389     1.02200
O51         O  0.27268525  0.40161275  0.55226831    -0.78200
O52         O  0.30103600  0.41792966  0.58435789    -0.78400
C53         C  0.30494048  0.42044410  0.60117819     1.02200
O54         O  0.27885222  0.33458930  0.60961965    -0.85800
O55         O  0.21587721  0.34854240  0.61209177    -0.82800
C56         C  0.20281751  0.32961267  0.60134120     0.97700
O57         O  0.20569465  0.33333097  0.58452164    -0.82800
O58         O  0.23370008  0.35037009  0.55253027    -0.85500
C59         C  0.25737029  0.33264006  0.55109422     1.02200
O60         O  0.28094889  0.33664235  0.56109578    -0.78300
O61         O  0.31482011  0.35311567  0.59140572    -0.78400
C62         C  0.30628505  0.33346655  0.60328545     1.02200
Cr63       Cr  0.25444704  0.37452786  0.60921699     1.93700
Cr64       Cr  0.21749492  0.37452526  0.57371190     1.93200
Cr65       Cr  0.28952656  0.37717508  0.57322398     1.39100
O66         O  0.25377187  0.37542080  0.58535216    -1.23500
O67         O  0.47811412  0.08558301  0.64323205    -0.85800
O68         O  0.46417888  0.14889370  0.64497166    -0.82800
C69         C  0.46279194  0.17657746  0.65102863     0.97700
O70         O  0.48198613  0.18581312  0.66292843    -0.82800
O71         O  0.46463627  0.15381376  0.69393341    -0.85500
C72         C  0.45903223  0.13016325  0.70376513     1.02200
O73         O  0.47578367  0.10572005  0.70260080    -0.78200
O74         O  0.46020700  0.07827944  0.67053282    -0.78400
C75         C  0.45795786  0.07394112  0.65378311     1.02200
O76         O  0.04358796  0.10014835  0.64576135    -0.85800
O77         O  0.02977695  0.16326694  0.64313157    -0.82800
C78         C  0.04952226  0.17514425  0.65380646     0.97700
O79         O  0.04652014  0.17126880  0.67061335    -0.82800
O80         O  0.02937370  0.14411688  0.70290872    -0.85500
C81         C  0.04543723  0.11930698  0.70477031     1.02200
O82         O  0.04066967  0.09578970  0.69479787    -0.78300
O83         O  0.02526322  0.06346260  0.66377981    -0.78400
C84         C  0.04520424  0.07270374  0.65223634     1.02200
Cr85       Cr  0.50385410  0.12447329  0.64613460     1.93700
Cr86       Cr  0.50546490  0.16094214  0.68170671     1.93200
Cr87       Cr  0.50071296  0.08864146  0.68196888     1.39100
O88         O  0.50338342  0.12470223  0.67002963    -1.23500
O89         O  0.22981329  0.16997684  0.39337764    -0.85800
O90         O  0.29130632  0.15146452  0.39154640    -0.82800
C91         C  0.30406605  0.17044924  0.40239232     0.97700
O92         O  0.30035677  0.16698091  0.41917591    -0.82800
O93         O  0.27251580  0.15050978  0.45125661    -0.85500
C94         C  0.25032265  0.16990043  0.45281209     1.02200
O95         O  0.22654794  0.16785386  0.44280822    -0.78200
O96         O  0.19249012  0.15619297  0.41220503    -0.78400
C97         C  0.20301827  0.17438971  0.40006697     1.02200
O98         O  0.20990631  0.10634299  0.39099820    -0.85800
O99         O  0.27164239  0.08703013  0.39269471    -0.82800
C100        C  0.29878783  0.08307685  0.39900766     0.97700
O101        O  0.30927101  0.10144360  0.41097882    -0.82800
O102        O  0.27608140  0.08564453  0.44165411    -0.85500
C103        C  0.25241231  0.08257834  0.45175304     1.02200
O104        O  0.22970709  0.10161790  0.45050659    -0.78300
O105        O  0.19998138  0.08954280  0.41835099    -0.78400
C106        C  0.19570623  0.08783552  0.40154048     1.02200
Cr107      Cr  0.25069816  0.12855690  0.39406580     1.93700
Cr108      Cr  0.28677080  0.12625034  0.42980237     1.93200
Cr109      Cr  0.21494591  0.12868577  0.43003607     1.39100
O110        O  0.25072837  0.12774917  0.41800985    -1.23500
O111        O  0.02627015  0.34039766  0.36202098    -0.85800
O112        O  0.04108546  0.40310693  0.35865945    -0.82800
C113        C  0.04370466  0.42988099  0.35148316     0.97700
O114        O  0.02513685  0.43835621  0.33910937    -0.82800
O115        O  0.03986047  0.40174678  0.30964976    -0.85500
C116        C  0.04171774  0.37781973  0.29967398     1.02200
O117        O  0.02306370  0.35507516  0.30185279    -0.78200
O118        O  0.04037281  0.32921136  0.33431301    -0.78400
C119        C  0.04460995  0.32678462  0.35111332     1.02200
O120        O  0.46097678  0.35654456  0.36101658    -0.85800
O121        O  0.47621327  0.41959336  0.36036169    -0.82800
C122        C  0.45742994  0.43198291  0.34920914     0.97700
O123        O  0.45998038  0.42660720  0.33254817    -0.82800
O124        O  0.47492407  0.39534245  0.30135077    -0.85500
C125        C  0.45601157  0.37249080  0.30078823     1.02200
O126        O  0.45865231  0.35004537  0.31186896    -0.78300
O127        O  0.47566455  0.31856665  0.34291729    -0.78400
C128        C  0.45734839  0.32920068  0.35482955     1.02200
Cr129      Cr  0.50103935  0.37973490  0.35863571     1.93700
Cr130      Cr  0.49999744  0.41282003  0.32171559     1.93200
Cr131      Cr  0.49950123  0.34103248  0.32366463     1.39100
O132        O  0.50011923  0.37786697  0.33470394    -1.23500
O133        O  0.03791813  0.14451347  0.11421861    -0.85800
O134        O  0.47616305  0.16226690  0.11224740    -0.82800
C135        C  0.44946718  0.16606062  0.10534147     0.97700
O136        O  0.43918413  0.14700261  0.09367182    -0.82800
O137        O  0.47284504  0.16120484  0.06325962    -0.85500
C138        C  0.49630004  0.16346781  0.05299834     1.02200
O139        O  0.01893703  0.14452751  0.05456809    -0.78200
O140        O  0.04701884  0.16086604  0.08666644    -0.78400
C141        C  0.05088337  0.16361122  0.10347251     1.02200
O142        O  0.01926881  0.08016590  0.11276215    -0.85800
O143        O  0.45750714  0.09776843  0.11430335    -0.82800
C144        C  0.44525048  0.07821824  0.10361822     0.97700
O145        O  0.44906129  0.08111479  0.08682203    -0.82800
O146        O  0.47795158  0.09574878  0.05488772    -0.85500
C147        C  0.50051284  0.07657439  0.05400199     1.02200
O148        O  0.02383523  0.07958497  0.06427573    -0.78300
O149        O  0.05692013  0.09526772  0.09454783    -0.78400
C150        C  0.04635994  0.07651775  0.10634757     1.02200
Cr151      Cr  0.49771671  0.12118165  0.11156261     1.93700
Cr152      Cr  0.46237264  0.12122543  0.07560196     1.93200
Cr153      Cr  0.03400257  0.12019363  0.07591189     1.39100
O154        O  0.49801720  0.12092001  0.08766661    -1.23500
O155        O  0.28872213  0.39252090  0.14356282    -0.85800
O156        O  0.27119769  0.33059628  0.14216368    -0.82800
C157        C  0.29067188  0.31789666  0.15278699     0.97700
O158        O  0.28840137  0.32193071  0.16960131    -0.82800
O159        O  0.27277391  0.34946672  0.20209011    -0.85500
C160        C  0.29191190  0.37206997  0.20317474     1.02200
O161        O  0.28940105  0.39526711  0.19268795    -0.78200
O162        O  0.27539764  0.42952480  0.16273520    -0.78400
C163        C  0.29354155  0.41895457  0.15068511     1.02200
O164        O  0.22457259  0.41167317  0.14238613    -0.85800
O165        O  0.20680163  0.34936941  0.14430545    -0.82800
C166        C  0.20360207  0.32213423  0.15080645     0.97700
O167        O  0.22319876  0.31157973  0.16209825    -0.82800
O168        O  0.20789594  0.34486023  0.19221233    -0.85500
C169        C  0.20447393  0.36853308  0.20220788     1.02200
O170        O  0.22403282  0.39085675  0.20169093    -0.78300
O171        O  0.20968847  0.42057376  0.17017834    -0.78400
C172        C  0.20628554  0.42481219  0.15347221     1.02200
Cr173      Cr  0.24783626  0.37103234  0.14490217     1.93700
Cr174      Cr  0.24817759  0.33463540  0.18062493     1.93200
Cr175      Cr  0.24954600  0.40643551  0.18090519     1.39100
O176        O  0.24854930  0.37077587  0.16880984    -1.23500
C177        C  0.07143344  0.18824377  0.11096486    -0.01700
C178        C  0.08147653  0.18586779  0.12890490    -0.09700
C179        C  0.10115994  0.20839681  0.13636636    -0.18600
C180        C  0.11151438  0.23439412  0.12606369     0.03800
C181        C  0.10045771  0.23734966  0.10803523     0.18000
C182        C  0.08082563  0.21419459  0.10060047    -0.20000
C183        C  0.10922959  0.26327838  0.09751603    -0.21200
C184        C  0.12939433  0.28600172  0.10437745    -0.19800
C185        C  0.14169240  0.28305720  0.12181448     0.19400
C186        C  0.13279546  0.25726618  0.13294430     0.01500
C187        C  0.14633816  0.25491631  0.15030223    -0.14500
C188        C  0.16861166  0.27654279  0.15604503    -0.12200
C189        C  0.17784252  0.30149234  0.14492246     0.01100
C190        C  0.16367556  0.30519365  0.12799127    -0.24400
H191        H  0.07437393  0.16619113  0.13728104     0.09100
H192        H  0.10771517  0.20469576  0.15020124     0.12600
H193        H  0.07275138  0.21645986  0.08679477     0.11400
H194        H  0.10063406  0.26588459  0.08383540     0.12600
H195        H  0.13597748  0.30562618  0.09583322     0.11600
H196        H  0.14099660  0.23626502  0.15959669     0.08700
H197        H  0.17899391  0.27343186  0.16927993     0.11900
H198        H  0.17079826  0.32443701  0.11930430     0.13800
C199        C  0.31526386  0.29740846  0.14526770    -0.01700
C200        C  0.31360074  0.28811108  0.12717867    -0.09700
C201        C  0.33625472  0.26854431  0.11976651    -0.18600
C202        C  0.36163349  0.25757476  0.13025381     0.03800
C203        C  0.36350226  0.26738702  0.14856471     0.18000
C204        C  0.34036931  0.28706108  0.15589620    -0.20000
C205        C  0.38826339  0.25724880  0.15948349    -0.21200
C206        C  0.41089609  0.23694106  0.15272284    -0.19800
C207        C  0.40925526  0.22623225  0.13489788     0.19400
C208        C  0.38481380  0.23672788  0.12332556     0.01500
C209        C  0.38421656  0.22529275  0.10542650    -0.14500
C210        C  0.40583857  0.20307665  0.09962075    -0.12200
C211        C  0.42911118  0.19195168  0.11125615     0.01100
C212        C  0.43136964  0.20431314  0.12870792    -0.24400
H213        H  0.29443361  0.29574296  0.11866164     0.09100
H214        H  0.33299954  0.26235341  0.10581135     0.12600
H215        H  0.34193697  0.29432279  0.16989048     0.11400
H216        H  0.38993423  0.26478113  0.17341820     0.12600
H217        H  0.42952423  0.22914169  0.16159118     0.11600
H218        H  0.36700123  0.23245011  0.09564219     0.08700
H219        H  0.40408059  0.19421718  0.08595227     0.11900
H220        H  0.44945116  0.19578668  0.13774590     0.13800
C221        C  0.42585138  0.05248647  0.11101592    -0.01700
C222        C  0.42316629  0.04853752  0.12974010    -0.09700
C223        C  0.40422956  0.02501927  0.13698428    -0.18600
C224        C  0.38707644  0.00463468  0.12565599     0.03800
C225        C  0.39093081  0.00786409  0.10666881     0.18000
C226        C  0.41006823  0.03168978  0.09955559    -0.20000
C227        C  0.37533245  0.48757236  0.09487055    -0.21200
C228        C  0.35533547  0.46451985  0.10150008    -0.19800
C229        C  0.34992239  0.46168706  0.12005796     0.19400
C230        C  0.36576319  0.48164624  0.13244515     0.01500
C231        C  0.35853589  0.47861015  0.15101085    -0.14500
C232        C  0.33554115  0.45769952  0.15686315    -0.12200
C233        C  0.31975283  0.43857066  0.14454140     0.01100
C234        C  0.32771371  0.43987746  0.12624994    -0.24400
H235        H  0.43564770  0.06384992  0.13892346     0.09100
H236        H  0.40351538  0.02349382  0.15149488     0.12600
H237        H  0.41236025  0.03424393  0.08504598     0.11400
H238        H  0.37839201  0.48973502  0.08039419     0.12600
H239        H  0.34332138  0.44938668  0.09200476     0.11600
H240        H  0.36933801  0.99281316  0.16128723     0.08700
H241        H  0.32979365  0.45670190  0.17110748     0.11900
H242        H  0.31529113  0.42515868  0.11669690     0.13800
C243        C  0.18130916  0.44579709  0.14679288    -0.01700
C244        C  0.15765356  0.45617715  0.15843122    -0.09700
C245        C  0.13400821  0.47602621  0.15221597    -0.18600
C246        C  0.13342536  0.48640106  0.13406798     0.03800
C247        C  0.15767436  0.47597053  0.12235723     0.18000
C248        C  0.18105052  0.45567364  0.12873653    -0.20000
C249        C  0.15872093  0.48615304  0.10439570    -0.21200
C250        C  0.13652394  0.00709923  0.09786348    -0.19800
C251        C  0.11249559  0.01795534  0.10906704     0.19400
C252        C  0.11010341  0.00724526  0.12721206     0.01500
C253        C  0.08460706  0.01810456  0.13770336    -0.14500
C254        C  0.06325193  0.03972023  0.13068771    -0.12200
C255        C  0.06678788  0.05132209  0.11313435     0.01100
C256        C  0.09109180  0.03992724  0.10228783    -0.24400
H257        H  0.15732263  0.44884286  0.17244522     0.09100
H258        H  0.11681125  0.98314595  0.16202922     0.12600
H259        H  0.19939601  0.44794010  0.11964470     0.11400
H260        H  0.17713150  0.47824696  0.09540964     0.12600
H261        H  0.13826734  0.01500529  0.08397603     0.11600
H262        H  0.08058227  0.01051122  0.15139117     0.08700
H263        H  0.04446759  0.04814089  0.13923748     0.11900
H264        H  0.09354835  0.04846815  0.08854650     0.13800
C265        C  0.17818034  0.36994639  0.21507805    -0.01700
C266        C  0.15870299  0.34388959  0.21773706    -0.09700
C267        C  0.13498552  0.34464686  0.23066390    -0.18600
C268        C  0.13008840  0.37165777  0.24143153     0.03800
C269        C  0.14914288  0.39844347  0.23812580     0.18000
C270        C  0.17276313  0.39738714  0.22502945    -0.20000
C271        C  0.14504198  0.42593439  0.24818646    -0.21200
C272        C  0.12300981  0.42712109  0.26195150    -0.19800
C273        C  0.10454598  0.40085951  0.26595083     0.19400
C274        C  0.10748349  0.37287740  0.25558533     0.01500
C275        C  0.08809839  0.34713500  0.26009049    -0.14500
C276        C  0.06712627  0.34895139  0.27442542    -0.12200
C277        C  0.06461650  0.37638908  0.28476965     0.01100
C278        C  0.08330444  0.40234678  0.28038801    -0.24400
H279        H  0.16213793  0.32255331  0.21002553     0.09100
H280        H  0.12125547  0.32354481  0.23203816     0.12600
H281        H  0.18737273  0.41789924  0.22283526     0.11400
H282        H  0.15934948  0.44650663  0.24559307     0.12600
H283        H  0.12069942  0.44859648  0.26968697     0.11600
H284        H  0.08862982  0.32516324  0.25290827     0.08700
H285        H  0.05279883  0.32857523  0.27741961     0.11900
H286        H  0.08131694  0.42378311  0.28820095     0.13800
C287        C  0.31669598  0.37189528  0.21713676    -0.01700
C288        C  0.33871998  0.39624077  0.21766673    -0.09700
C289        C  0.36183163  0.39693542  0.23090787    -0.18600
C290        C  0.36373516  0.37316013  0.24424726     0.03800
C291        C  0.34152494  0.34830424  0.24361324     0.18000
C292        C  0.31834104  0.34786264  0.23013364    -0.20000
C293        C  0.34252643  0.32413528  0.25647847    -0.21200
C294        C  0.36509948  0.32415697  0.27002975    -0.19800
C295        C  0.38718813  0.34840273  0.27110277     0.19400
C296        C  0.38679372  0.37324777  0.25819912     0.01500
C297        C  0.40942905  0.39724244  0.25986569    -0.14500
C298        C  0.43138523  0.39667488  0.27370419    -0.12200
C299        C  0.43185251  0.37223854  0.28643594     0.01100
C300        C  0.40965655  0.34804986  0.28503006    -0.24400
H301        H  0.33812034  0.41503866  0.20777776     0.09100
H302        H  0.37776870  0.41651301  0.23028438     0.12600
H303        H  0.30141144  0.32887341  0.22986740     0.11400
H304        H  0.32568983  0.30508412  0.25607582     0.12600
H305        H  0.36520565  0.30512167  0.27978190     0.11600
H306        H  0.41087632  0.41692353  0.25074176     0.08700
H307        H  0.44824946  0.41566305  0.27434333     0.11900
H308        H  0.40979986  0.32898969  0.29477509     0.13800
C309        C  0.18294919  0.19994784  0.39308159    -0.01700
C310        C  0.18659219  0.21086405  0.37536122    -0.09700
C311        C  0.16588881  0.23296597  0.36813372    -0.18600
C312        C  0.14095196  0.24518092  0.37856201     0.03800
C313        C  0.13853738  0.23534059  0.39687553     0.18000
C314        C  0.15913091  0.21262980  0.40384465    -0.20000
C315        C  0.11534256  0.24792426  0.40807496    -0.21200
C316        C  0.09396225  0.26961639  0.40137720    -0.19800
C317        C  0.09471572  0.27860473  0.38319409     0.19400
C318        C  0.11815848  0.26649908  0.37147979     0.01500
C319        C  0.11710674  0.27549851  0.35308667    -0.14500
C320        C  0.09348984  0.29521826  0.34659139    -0.12200
C321        C  0.07039006  0.30697900  0.35818596     0.01100
C322        C  0.07155196  0.29898808  0.37655673    -0.24400
H323        H  0.20499524  0.20156154  0.36683975     0.09100
H324        H  0.17001374  0.23998578  0.35435156     0.12600
H325        H  0.15654130  0.20469225  0.41769240     0.11400
H326        H  0.11362181  0.24081776  0.42210274     0.12600
H327        H  0.07619361  0.27881479  0.41038391     0.11600
H328        H  0.13370016  0.26705145  0.34327232     0.08700
H329        H  0.09322002  0.30110180  0.33235627     0.11900
H330        H  0.05375717  0.30785153  0.38566716     0.13800
C331        C  0.32413434  0.19590796  0.39510101    -0.01700
C332        C  0.32925462  0.19796680  0.37644637    -0.09700
C333        C  0.34897751  0.22080834  0.36921815    -0.18600
C334        C  0.36455316  0.24255880  0.38046247     0.03800
C335        C  0.35843625  0.24124177  0.39932564     0.18000
C336        C  0.33838315  0.21804811  0.40645530    -0.20000
C337        C  0.37278946  0.26274741  0.41097037    -0.21200
C338        C  0.39366258  0.28511774  0.40434063    -0.19800
C339        C  0.40090277  0.28639456  0.38591494     0.19400
C340        C  0.38634522  0.26516545  0.37369317     0.01500
C341        C  0.39491930  0.26688766  0.35527932    -0.14500
C342        C  0.41756178  0.28807170  0.34937514    -0.12200
C343        C  0.43199056  0.30872242  0.36143881     0.01100
C344        C  0.42318902  0.30826407  0.37965670    -0.24400
H345        H  0.31821163  0.18154271  0.36728626     0.09100
H346        H  0.35161183  0.22059915  0.35475943     0.12600
H347        H  0.33422085  0.21699891  0.42088658     0.11400
H348        H  0.36809081  0.26205117  0.42534700     0.12600
H349        H  0.40463003  0.30119351  0.41374336     0.11600
H350        H  0.38514803  0.25175053  0.34510461     0.08700
H351        H  0.42394693  0.28824760  0.33521049     0.11900
H352        H  0.43457855  0.32406495  0.38906166     0.13800
C353        C  0.43312402  0.45368242  0.35587828    -0.01700
C354        C  0.40578537  0.45920884  0.34595665    -0.09700
C355        C  0.38242878  0.47901870  0.35267910    -0.18600
C356        C  0.38602932  0.49431989  0.36949986     0.03800
C357        C  0.41443733  0.48946170  0.37911706     0.18000
C358        C  0.43732324  0.46903291  0.37239083    -0.20000
C359        C  0.42001192  0.00514064  0.39536781    -0.21200
C360        C  0.39801155  0.02582844  0.40228745    -0.19800
C361        C  0.36964564  0.03081422  0.39331380     0.19400
C362        C  0.36285477  0.01470925  0.37699093     0.01500
C363        C  0.33320037  0.01978519  0.36895947    -0.14500
C364        C  0.31192799  0.04119181  0.37637169    -0.12200
C365        C  0.31955014  0.05813984  0.39195077     0.01100
C366        C  0.34819063  0.05223356  0.40052661    -0.24400
H367        H  0.40221333  0.44776889  0.33306941     0.09100
H368        H  0.36202487  0.48217143  0.34432469     0.12600
H369        H  0.45874368  0.46537239  0.37996619     0.11400
H370        H  0.44170915  0.00165043  0.40268248     0.12600
H371        H  0.40320750  0.03798668  0.41477778     0.11600
H372        H  0.32582009  0.50764147  0.35694099     0.08700
H373        H  0.28974824  0.04499931  0.36963735     0.11900
H374        H  0.35412302  0.06474413  0.41279924     0.13800
C375        C  0.06749043  0.45233287  0.35803890    -0.01700
C376        C  0.07615442  0.47807784  0.34733068    -0.09700
C377        C  0.09719159  0.50051357  0.35371722    -0.18600
C378        C  0.11004879  0.49813260  0.37126054     0.03800
C379        C  0.10107492  0.47199420  0.38210024     0.18000
C380        C  0.08033604  0.44924607  0.37534776    -0.20000
C381        C  0.11246679  0.46893697  0.39972399    -0.21200
C382        C  0.13255653  0.49136651  0.40689401    -0.19800
C383        C  0.14211137  0.01718439  0.39653509     0.19400
C384        C  0.13121534  0.02083630  0.37850291     0.01500
C385        C  0.14212017  0.04697840  0.36850062    -0.14500
C386        C  0.16292816  0.06844671  0.37607680    -0.12200
C387        C  0.17340809  0.06488859  0.39388942     0.01100
C388        C  0.16273442  0.03927903  0.40408659    -0.24400
H389        H  0.06651102  0.48098974  0.33390550     0.09100
H390        H  0.10248449  0.01964607  0.34467356     0.12600
H391        H  0.07345252  0.42958218  0.38380721     0.11400
H392        H  0.10560399  0.44915317  0.40808241     0.12600
H393        H  0.14082209  0.48839755  0.42062278     0.11600
H394        H  0.13530457  0.05140437  0.35473550     0.08700
H395        H  0.17074327  0.08809710  0.36790242     0.11900
H396        H  0.17088615  0.03623394  0.41784042     0.13800
C397        C  0.25112570  0.05744518  0.46572103    -0.01700
C398        C  0.22290308  0.05133551  0.47476198    -0.09700
C399        C  0.22121417  0.02893628  0.48852565    -0.18600
C400        C  0.24795370  0.01181288  0.49393979     0.03800
C401        C  0.27661763  0.01801641  0.48476885     0.18000
C402        C  0.27788402  0.04037233  0.47069942    -0.20000
C403        C  0.30395380  0.50221460  0.48988920    -0.21200
C404        C  0.30352188  0.48053173  0.50398048    -0.19800
C405        C  0.27566063  0.47375247  0.51318362     0.19400
C406        C  0.24738126  0.48907800  0.50823924     0.01500
C407        C  0.21983114  0.48092205  0.51784465    -0.14500
C408        C  0.22046186  0.45875761  0.53183624    -0.12200
C409        C  0.24841755  0.44380929  0.53669801     0.01100
C410        C  0.27593699  0.45153613  0.52726789    -0.24400
H411        H  0.20182554  0.06409560  0.47124009     0.09100
H412        H  0.19867484  0.02591899  0.49482058     0.12600
H413        H  0.29992012  0.04500106  0.46392074     0.11400
H414        H  0.32591210  0.50684447  0.48303975     0.12600
H415        H  0.32516296  0.46888318  0.50767166     0.11600
H416        H  0.19733980  0.99105515  0.51479650     0.08700
H417        H  0.19881939  0.45299079  0.53871619     0.11900
H418        H  0.29776936  0.44012974  0.53085697     0.13800
C419        C  0.25742325  0.30787106  0.53710088    -0.01700
C420        C  0.28497306  0.29187146  0.53260422    -0.09700
C421        C  0.28511718  0.26939344  0.51887937    -0.18600
C422        C  0.25747194  0.26207491  0.50921597     0.03800
C423        C  0.22947379  0.27793677  0.51412901     0.18000
C424        C  0.22973309  0.30056415  0.52785670    -0.20000
C425        C  0.20131344  0.27123212  0.50529716    -0.21200
C426        C  0.20029103  0.24908447  0.49157181    -0.19800
C427        C  0.22744276  0.23324540  0.48626058     0.19400
C428        C  0.25648756  0.23956189  0.49494152     0.01500
C429        C  0.28323033  0.22307920  0.48891838    -0.14500
C430        C  0.28104100  0.20083925  0.47518461    -0.12200
C431        C  0.25229585  0.19439334  0.46686744     0.01100
C432        C  0.22563854  0.21095314  0.47234774    -0.24400
H433        H  0.30666159  0.29701250  0.53956773     0.09100
H434        H  0.30723651  0.25819362  0.51618634     0.12600
H435        H  0.20817280  0.31257176  0.53133508     0.11400
H436        H  0.17988220  0.28319686  0.50904774     0.12600
H437        H  0.17809417  0.24436010  0.48503450     0.11600
H438        H  0.30618486  0.22675672  0.49453689     0.08700
H439        H  0.30209144  0.18860683  0.47104934     0.11900
H440        H  0.20330025  0.20612867  0.46598006     0.13800
C441        C  0.07520633  0.19476023  0.64642123    -0.01700
C442        C  0.09563124  0.21066949  0.65798579    -0.09700
C443        C  0.11847135  0.23088339  0.65111217    -0.18600
C444        C  0.12158674  0.23601201  0.63229811     0.03800
C445        C  0.10170417  0.21878677  0.62056585     0.18000
C446        C  0.07885214  0.19845541  0.62767622    -0.20000
C447        C  0.10431168  0.22244210  0.60182273    -0.21200
C448        C  0.12564670  0.24364041  0.59446023    -0.19800
C449        C  0.14473640  0.26190007  0.60566026     0.19400
C450        C  0.14320526  0.25806412  0.62474100     0.01500
C451        C  0.16276462  0.27713236  0.63547725    -0.14500
C452        C  0.18224542  0.29961574  0.62769309    -0.12200
C453        C  0.18325033  0.30397259  0.60893756     0.01100
C454        C  0.16481626  0.28455152  0.59793918    -0.24400
H455        H  0.09363306  0.20794803  0.67248490     0.09100
H456        H  0.13305534  0.24236721  0.66093985     0.12600
H457        H  0.06345894  0.18593502  0.61854396     0.11400
H458        H  0.08941696  0.20913715  0.59279081     0.12600
H459        H  0.12676782  0.24622646  0.57991437     0.11600
H460        H  0.16320799  0.27575641  0.64998685     0.08700
H461        H  0.19637999  0.31401464  0.63656088     0.11900
H462        H  0.16544888  0.28759824  0.58340718     0.13800
C463        C  0.32943647  0.31032989  0.61016236    -0.01700
C464        C  0.36150262  0.31661707  0.60835029    -0.09700
C465        C  0.38394738  0.29550894  0.61471634    -0.18600
C466        C  0.37511458  0.26687597  0.62300338     0.03800
C467        C  0.34256409  0.26019746  0.62450432     0.18000
C468        C  0.32011418  0.28205679  0.61834849    -0.20000
C469        C  0.33265307  0.23165218  0.63204023    -0.21200
C470        C  0.35432628  0.20951830  0.63805157    -0.19800
C471        C  0.38650732  0.21558107  0.63703965     0.19400
C472        C  0.39737687  0.24458294  0.62973744     0.01500
C473        C  0.43005097  0.25015733  0.62974028    -0.14500
C474        C  0.45090060  0.22797144  0.63671689    -0.12200
C475        C  0.44013087  0.19923556  0.64348560     0.01100
C476        C  0.40793312  0.19298217  0.64349586    -0.24400
H477        H  0.36939792  0.33826707  0.60209752     0.09100
H478        H  0.40803213  0.30218015  0.61273415     0.12600
H479        H  0.29537263  0.27680734  0.61964253     0.11400
H480        H  0.30792510  0.22628913  0.63317514     0.12600
H481        H  0.34582709  0.18759261  0.64370234     0.11600
H482        H  0.44024990  0.27165753  0.62476524     0.08700
H483        H  0.47573782  0.23318539  0.63668753     0.11900
H484        H  0.39954326  0.17088464  0.64900445     0.13800
C485        C  0.32451002  0.44577401  0.60879965    -0.01700
C486        C  0.32331391  0.45193420  0.62736282    -0.09700
C487        C  0.34302460  0.47413212  0.63517378    -0.18600
C488        C  0.36501369  0.49086390  0.62463462     0.03800
C489        C  0.36568246  0.48505193  0.60571482     0.18000
C490        C  0.34535890  0.46286633  0.59797930    -0.20000
C491        C  0.38707572  0.50093347  0.59467751    -0.21200
C492        C  0.40828287  0.52205547  0.60205641    -0.19800
C493        C  0.40859415  0.02782735  0.62064846     0.19400
C494        C  0.38676135  0.01263068  0.63221993     0.01500
C495        C  0.38809587  0.01947690  0.65090407    -0.14500
C496        C  0.41076729  0.03977502  0.65781411    -0.12200
C497        C  0.43271580  0.05401546  0.64638410     0.01100
C498        C  0.43109474  0.04832188  0.62776885    -0.24400
H499        H  0.30716059  0.43927839  0.63601051     0.09100
H500        H  0.34072052  0.97725278  0.64953538     0.12600
H501        H  0.34646034  0.45822973  0.58360322     0.11400
H502        H  0.38768731  0.49668734  0.58025937     0.12600
H503        H  0.42483112  0.53368440  0.59317365     0.11600
H504        H  0.37224196  0.00928167  0.66059345     0.08700
H505        H  0.41134508  0.04397485  0.67222958     0.11900
H506        H  0.44783192  0.05938948  0.61875892     0.13800
C507        C  0.06961660  0.05061674  0.64583884    -0.01700
C508        C  0.09973692  0.06124574  0.64148238    -0.09700
C509        C  0.12281646  0.04020939  0.63557527    -0.18600
C510        C  0.11611788  0.00783981  0.63330778     0.03800
C511        C  0.08517736  0.99747169  0.63722899     0.18000
C512        C  0.06265935  0.01861479  0.64386817    -0.20000
C513        C  0.07663343  0.46618153  0.63412846    -0.21200
C514        C  0.09791195  0.44505479  0.62677300    -0.19800
C515        C  0.12868040  0.45431060  0.62302080     0.19400
C516        C  0.13860578  0.48553356  0.62681351     0.01500
C517        C  0.17060366  0.49286055  0.62404410    -0.14500
C518        C  0.19150805  0.47037552  0.61727328    -0.12200
C519        C  0.18108406  0.44025414  0.61260170     0.01100
C520        C  0.14964183  0.43239017  0.61556487    -0.24400
H521        H  0.10557261  0.08591298  0.64286052     0.09100
H522        H  0.14542770  0.05006079  0.63241757     0.12600
H523        H  0.03923697  0.01032092  0.64694597     0.11400
H524        H  0.05306556  0.45815738  0.63701212     0.12600
H525        H  0.09030143  0.42119304  0.62413707     0.11600
H526        H  0.18020759  0.01560795  0.62726383     0.08700
H527        H  0.21583032  0.47676837  0.61532220     0.11900
H528        H  0.14162119  0.40884249  0.61239499     0.13800
C529        C  0.18368178  0.11625175  0.78899917    -0.01700
C530        C  0.16665866  0.08871524  0.78560670    -0.09700
C531        C  0.14339122  0.08806948  0.77234168    -0.18600
C532        C  0.13625466  0.11517079  0.76202369     0.03800
C533        C  0.15249055  0.14343029  0.76616535     0.18000
C534        C  0.17608112  0.14363642  0.77936168    -0.20000
C535        C  0.14521970  0.17134471  0.75705476    -0.21200
C536        C  0.12226627  0.17180630  0.74377810    -0.19800
C537        C  0.10663405  0.14418718  0.73891681     0.19400
C538        C  0.11366434  0.11533284  0.74777181     0.01500
C539        C  0.09832997  0.08784927  0.74164509    -0.14500
C540        C  0.07676127  0.08911289  0.72746743    -0.12200
C541        C  0.06928573  0.11777727  0.71920115     0.01100
C542        C  0.08424714  0.14522960  0.72505392    -0.24400
H543        H  0.17160375  0.06736832  0.79307734     0.09100
H544        H  0.13128823  0.06606716  0.77054308     0.12600
H545        H  0.18858955  0.16528721  0.78211340     0.11400
H546        H  0.15732399  0.19302459  0.76025524     0.12600
H547        H  0.11709470  0.19384303  0.73703530     0.11600
H548        H  0.10290611  0.06495912  0.74731985     0.08700
H549        H  0.06545570  0.06760276  0.72315659     0.11900
H550        H  0.07885386  0.16744744  0.71854691     0.13800
C551        C  0.43333338  0.13084872  0.71723003    -0.01700
C552        C  0.42186108  0.15934453  0.72396621    -0.09700
C553        C  0.39928814  0.15972311  0.73767905    -0.18600
C554        C  0.38717068  0.13141200  0.74498415     0.03800
C555        C  0.39762483  0.10264083  0.73734784     0.18000
C556        C  0.42069777  0.10260818  0.72382327    -0.20000
C557        C  0.38516890  0.07400951  0.74333549    -0.21200
C558        C  0.36266027  0.07325894  0.75689819    -0.19800
C559        C  0.35263057  0.10105608  0.76516121     0.19400
C560        C  0.36504966  0.13052764  0.75951466     0.01500
C561        C  0.35523331  0.15770096  0.76891696    -0.14500
C562        C  0.33354743  0.15573668  0.78302486    -0.12200
C563        C  0.32055970  0.12678285  0.78814475     0.01100
C564        C  0.33035870  0.09950102  0.77914465    -0.24400
H565        H  0.43094399  0.18147387  0.71893692     0.09100
H566        H  0.39170280  0.18252612  0.74223898     0.12600
H567        H  0.42889582  0.08041437  0.71840654     0.11400
H568        H  0.39283503  0.05200972  0.73744670     0.12600
H569        H  0.35337481  0.05070525  0.76114610     0.11600
H570        H  0.36418826  0.18078580  0.76583398     0.08700
H571        H  0.32654540  0.17717143  0.78978144     0.11900
H572        H  0.32080571  0.07689800  0.78312380     0.13800
C573        C  0.50068044  0.43876508  0.96982139    -0.01700
C574        C  0.47602175  0.46033997  0.97083225    -0.09700
C575        C  0.47491706  0.48261143  0.98453256    -0.18600
C576        C  0.49859199  0.48406525  0.99782474     0.03800
C577        C  0.02407862  0.46272788  0.99648940     0.18000
C578        C  0.02481382  0.44024153  0.98263455    -0.20000
C579        C  0.04867575  0.46404827  0.00895278    -0.21200
C580        C  0.04867554  0.48642299  0.02262642    -0.19800
C581        C  0.02376502  0.00757629  0.02438197     0.19400
C582        C  0.49806515  0.00623988  0.01221324     0.01500
C583        C  0.47282763  0.02709528  0.01500531    -0.14500
C584        C  0.47370498  0.04927363  0.02873729    -0.12200
C585        C  0.49961716  0.05151656  0.04023654     0.01100
C586        C  0.02441756  0.03022243  0.03817488    -0.24400
H587        H  0.45725827  0.45998232  0.96100254     0.09100
H588        H  0.45532098  0.99851295  0.98418442     0.12600
H589        H  0.04416044  0.42379725  0.98189243     0.11400
H590        H  0.06821531  0.44788546  0.00800243     0.12600
H591        H  0.06825065  0.48713321  0.03191785     0.11600
H592        H  0.45193763  0.02687911  0.00688239     0.08700
H593        H  0.45393875  0.06501483  0.03019910     0.11900
H594        H  0.04438081  0.03144123  0.04717956     0.13800
C595        C  0.50168943  0.30208696  0.96882094    -0.01700
C596        C  0.02559179  0.27966055  0.96972944    -0.09700
C597        C  0.02530802  0.25642085  0.98301028    -0.18600
C598        C  0.00097817  0.25490854  0.99595266     0.03800
C599        C  0.47619267  0.27704285  0.99459676     0.18000
C600        C  0.47684989  0.30040354  0.98119707    -0.20000
C601        C  0.45093704  0.27577380  0.00663677    -0.21200
C602        C  0.44978322  0.25293162  0.02007905    -0.19800
C603        C  0.47419932  0.23127145  0.02205292     0.19400
C604        C  0.00032261  0.23219617  0.01013480     0.01500
C605        C  0.02493796  0.21066808  0.01310440    -0.14500
C606        C  0.02341431  0.18879624  0.02705192    -0.12200
C607        C  0.49739000  0.18744609  0.03854963     0.01100
C608        C  0.47281881  0.20882987  0.03599081    -0.24400
H609        H  0.04478793  0.28011386  0.96016685     0.09100
H610        H  0.04440721  0.23991998  0.98267489     0.12600
H611        H  0.45800978  0.31743971  0.98050096     0.11400
H612        H  0.43187649  0.29249471  0.00560710     0.12600
H613        H  0.42983938  0.25244818  0.02912958     0.11600
H614        H  0.04593196  0.21030598  0.00505653     0.08700
H615        H  0.04288693  0.17276456  0.02878465     0.11900
H616        H  0.45266753  0.20814161  0.04489353     0.13800
C617        C  0.07070810  0.30167036  0.89498816    -0.01700
C618        C  0.06519257  0.28876845  0.87789674    -0.09700
C619        C  0.08621984  0.26728983  0.87031542    -0.18600
C620        C  0.11345875  0.25778237  0.87973453     0.03800
C621        C  0.11825323  0.27014540  0.89734791     0.18000
C622        C  0.09714555  0.29193396  0.90468766    -0.20000
C623        C  0.14426549  0.26095467  0.90752533    -0.21200
C624        C  0.16585849  0.23982467  0.90057102    -0.19800
C625        C  0.16222444  0.22767486  0.88316671     0.19400
C626        C  0.13614122  0.23657375  0.87238831     0.01500
C627        C  0.13426936  0.22417069  0.85468953    -0.12900
C628        C  0.15729239  0.20379012  0.84807060    -0.12200
C629        C  0.18264697  0.19480116  0.85890270     0.01100
C630        C  0.18482173  0.20682985  0.87645474    -0.24400
H631        H  0.04490307  0.29588705  0.87013787     0.09100
H632        H  0.08054325  0.25860103  0.85706292     0.12600
H633        H  0.10143597  0.30149406  0.91802160     0.11400
H634        H  0.14795971  0.27019785  0.92098166     0.12600
H635        H  0.18574560  0.23316912  0.90881728     0.11600
H636        H  0.11551259  0.23005052  0.84556974     0.08700
H637        H  0.15512804  0.19488615  0.83443856     0.11900
H638        H  0.20455404  0.20036809  0.88488745     0.13800
C639        C  0.31638011  0.19468066  0.86377189    -0.01700
C640        C  0.33106993  0.18827252  0.88029794    -0.09700
C641        C  0.35185802  0.20986766  0.88798251    -0.18600
C642        C  0.35893361  0.23863837  0.87923418     0.03800
C643        C  0.34429065  0.24475683  0.86235186     0.18000
C644        C  0.32312679  0.22306921  0.85493432    -0.20000
C645        C  0.35099837  0.27241363  0.85284651    -0.21200
C646        C  0.37245764  0.29396350  0.85954887    -0.19800
C647        C  0.38732652  0.28871987  0.87610257     0.19400
C648        C  0.38031316  0.26133840  0.88641424     0.01500
C649        C  0.39499842  0.25801306  0.90343218    -0.14500
C650        C  0.41623331  0.28053218  0.90968351    -0.12200
C651        C  0.42389344  0.30684928  0.89914461     0.01100
C652        C  0.40920074  0.31081386  0.88239274    -0.24400
H653        H  0.32622812  0.16657412  0.88745784     0.09100
H654        H  0.36225782  0.20321391  0.90067723     0.12600
H655        H  0.31204809  0.22825944  0.84210206     0.11400
H656        H  0.33986918  0.27722842  0.83998884     0.12600
H657        H  0.37744700  0.31493083  0.85171548     0.11600
H658        H  0.39039384  0.23840576  0.91228236     0.08700
H659        H  0.42703218  0.27710470  0.92276993     0.11900
H660        H  0.41447987  0.33143805  0.87430847     0.13800
C661        C  0.32252727  0.05045972  0.86091324    -0.01700
C662        C  0.34815456  0.04180973  0.85020929    -0.09700
C663        C  0.37209089  0.02298907  0.85720890    -0.18600
C664        C  0.37090543  0.01170173  0.87518417     0.03800
C665        C  0.34483255  0.02054373  0.88598009     0.18000
C666        C  0.32134443  0.04010161  0.87889914    -0.20000
C667        C  0.34183227  0.00906319  0.90362298    -0.21200
C668        C  0.36341952  0.98775939  0.91051784    -0.19800
C669        C  0.38898544  0.47806512  0.90010865     0.19400
C670        C  0.39386039  0.49088350  0.88258503     0.01500
C671        C  0.42116475  0.48174995  0.87313404    -0.14500
C672        C  0.44137059  0.45901465  0.88019691    -0.12200
C673        C  0.43498679  0.44457612  0.89680920     0.01100
C674        C  0.40928015  0.45496754  0.90694668    -0.24400
H675        H  0.34970628  0.04955584  0.83629570     0.09100
H676        H  0.39074777  0.51695626  0.84805632     0.12600
H677        H  0.30155346  0.04648098  0.88730068     0.11400
H678        H  0.32209419  0.01583015  0.91195400     0.12600
H679        H  0.35985396  0.97847272  0.92400291     0.11600
H680        H  0.42738393  0.49152846  0.86018669     0.08700
H681        H  0.46151608  0.45194397  0.87230044     0.11900
H682        H  0.40469451  0.44462012  0.92008132     0.13800
C683        C  0.07772074  0.43709768  0.89867286    -0.01700
C684        C  0.08018595  0.46661371  0.90686456    -0.09700
C685        C  0.10024074  0.48957209  0.89977729    -0.18600
C686        C  0.11907414  0.48331408  0.88444843     0.03800
C687        C  0.11726785  0.45281062  0.87669606     0.18000
C688        C  0.09630190  0.43039341  0.88359771    -0.20000
C689        C  0.13663469  0.44467406  0.86220563    -0.21200
C690        C  0.15805725  0.46611995  0.85527964    -0.19800
C691        C  0.16005695  0.99653628  0.86233995     0.19400
C692        C  0.14012146  0.00585767  0.87675682     0.01500
C693        C  0.14213341  0.03732713  0.88276773    -0.14500
C694        C  0.16400119  0.05814111  0.87534271    -0.12200
C695        C  0.18464390  0.04838876  0.86172655     0.01100
C696        C  0.18210596  0.01762383  0.85510812    -0.24400
H697        H  0.06612336  0.47214388  0.91861459     0.09100
H698        H  0.10089349  0.01176566  0.90675690     0.12600
H699        H  0.09489301  0.40732435  0.87743549     0.11400
H700        H  0.13551784  0.42137670  0.85634117     0.12600
H701        H  0.17307498  0.45889718  0.84424315     0.11600
H702        H  0.12705166  0.04657937  0.89314431     0.08700
H703        H  0.16501483  0.08191900  0.88051222     0.11900
H704        H  0.19755760  0.00988521  0.84438295     0.13800
O705        O  0.48098875  0.91315507  0.89655525    -0.85800
O706        O  0.04257055  0.89452354  0.89477621    -0.82800
C707        C  0.05588887  0.91309813  0.90569281     0.97700
O708        O  0.05142304  0.91040607  0.92244789    -0.82800
O709        O  0.02282134  0.89487977  0.95457610    -0.85500
C710        C  0.50061517  0.91446012  0.95561933     1.02200
O711        O  0.47773421  0.91262247  0.94497975    -0.78200
O712        O  0.44330686  0.89929254  0.91501134    -0.78400
C713        C  0.45429736  0.91795458  0.90326483     1.02200
O714        O  0.46048178  0.84861343  0.89475695    -0.85800
O715        O  0.02272578  0.83017718  0.89619331    -0.82800
C716        C  0.04995416  0.82635412  0.90242364     0.97700
O717        O  0.06034209  0.84453883  0.91455710    -0.82800
O718        O  0.02611792  0.82976487  0.94475558    -0.85500
C719        C  0.50281162  0.82736870  0.95512661     1.02200
O720        O  0.48074996  0.84716006  0.95427667    -0.78300
O721        O  0.45132429  0.83311414  0.92248871    -0.78400
C722        C  0.44660438  0.83048192  0.90578459     1.02200
Cr723      Cr  0.50162264  0.87156103  0.89737619     1.93700
Cr724      Cr  0.03751347  0.87001707  0.93317153     1.93200
Cr725      Cr  0.46597425  0.87289225  0.93326292     1.39100
O726        O  0.50169262  0.87136268  0.92126525    -1.23500
O727        O  0.27663895  0.58172814  0.86383095    -0.85800
O728        O  0.29077700  0.64498269  0.86236475    -0.82800
C729        C  0.29338651  0.67237308  0.85595392     0.97700
O730        O  0.27559017  0.68143452  0.84325917    -0.82800
O731        O  0.29196493  0.64846267  0.81274286    -0.85500
C732        C  0.29626912  0.62523036  0.80248908     1.02200
O733        O  0.27914592  0.60102927  0.80393983    -0.78200
O734        O  0.29442755  0.57368965  0.83651197    -0.78400
C735        C  0.29679920  0.56981905  0.85334373     1.02200
O736        O  0.21131084  0.59748714  0.86092271    -0.85800
O737        O  0.22583167  0.66046940  0.86306312    -0.82800
C738        C  0.20726510  0.67340582  0.85203011     0.97700
O739        O  0.21049662  0.66897567  0.83532485    -0.82800
O740        O  0.22704098  0.64037262  0.80360173    -0.85500
C741        C  0.20932103  0.61657062  0.80250422     1.02200
O742        O  0.21384884  0.59300384  0.81253775    -0.78300
O743        O  0.22902816  0.56024636  0.84329888    -0.78400
C744        C  0.20926834  0.56993730  0.85479755     1.02200
Cr745      Cr  0.25119989  0.62107127  0.86064439     1.93700
Cr746      Cr  0.25138562  0.65698408  0.82468207     1.93200
Cr747      Cr  0.25403509  0.58478155  0.82498157     1.39100
O748        O  0.25232356  0.62099800  0.83672492    -1.23500
O749        O  0.29303774  0.90049133  0.61182598    -0.85800
O750        O  0.23036465  0.91439088  0.61083336    -0.82800
C751        C  0.20283011  0.91676792  0.60483649     0.97700
O752        O  0.19323551  0.89839291  0.59258461    -0.82800
O753        O  0.22594383  0.91544389  0.56152611    -0.85500
C754        C  0.24900808  0.91932478  0.55104407     1.02200
O755        O  0.27268554  0.90161288  0.55226843    -0.78200
O756        O  0.30103622  0.91792984  0.58435801    -0.78400
C757        C  0.30494065  0.92044428  0.60117830     1.02200
O758        O  0.27885271  0.83458929  0.60961974    -0.85800
O759        O  0.21587769  0.84854222  0.61209191    -0.82800
C760        C  0.20281799  0.82961253  0.60134131     0.97700
O761        O  0.20569508  0.83333097  0.58452176    -0.82800
O762        O  0.23370047  0.85037022  0.55253040    -0.85500
C763        C  0.25737064  0.83264013  0.55109438     1.02200
O764        O  0.28094927  0.83664244  0.56109591    -0.78300
O765        O  0.31482053  0.85311581  0.59140582    -0.78400
C766        C  0.30628550  0.83346657  0.60328548     1.02200
Cr767      Cr  0.25444745  0.87452779  0.60921713     1.93700
Cr768      Cr  0.21749530  0.87452530  0.57371204     1.93200
Cr769      Cr  0.28952692  0.87717520  0.57322409     1.39100
O770        O  0.25377225  0.87542084  0.58535230    -1.23500
O771        O  0.47811431  0.58558277  0.64323200    -0.85800
O772        O  0.46417898  0.64889346  0.64497157    -0.82800
C773        C  0.46279200  0.67657720  0.65102857     0.97700
O774        O  0.48198615  0.68581288  0.66292838    -0.82800
O775        O  0.46463631  0.65381393  0.69393340    -0.85500
C776        C  0.45903200  0.63016341  0.70376505     1.02200
O777        O  0.47578324  0.60572008  0.70260071    -0.78200
O778        O  0.46020671  0.57827951  0.67053268    -0.78400
C779        C  0.45795784  0.57394102  0.65378298     1.02200
O780        O  0.04358798  0.60014807  0.64576152    -0.85800
O781        O  0.02977716  0.66326673  0.64313158    -0.82800
C782        C  0.04952243  0.67514414  0.65380647     0.97700
O783        O  0.04652033  0.67126861  0.67061335    -0.82800
O784        O  0.02937381  0.64411673  0.70290869    -0.85500
C785        C  0.04543709  0.61930668  0.70477036     1.02200
O786        O  0.04066925  0.59578933  0.69479802    -0.78300
O787        O  0.02526298  0.56346238  0.66377994    -0.78400
C788        C  0.04520415  0.57270349  0.65223652     1.02200
Cr789      Cr  0.50385422  0.62447310  0.64613461     1.93700
Cr790      Cr  0.50546496  0.66094199  0.68170669     1.93200
Cr791      Cr  0.50071261  0.58864134  0.68196888     1.39100
O792        O  0.50338335  0.62470207  0.67002964    -1.23500
O793        O  0.22981350  0.66997705  0.39337780    -0.85800
O794        O  0.29130649  0.65146464  0.39154671    -0.82800
C795        C  0.30406613  0.67044945  0.40239262     0.97700
O796        O  0.30035671  0.66698121  0.41917621    -0.82800
O797        O  0.27251560  0.65050963  0.45125688    -0.85500
C798        C  0.25032251  0.66990032  0.45281240     1.02200
O799        O  0.22654786  0.66785391  0.44280847    -0.78200
O800        O  0.19249028  0.65619332  0.41220520    -0.78400
C801        C  0.20301849  0.67439001  0.40006713     1.02200
O802        O  0.20990637  0.60634326  0.39099829    -0.85800
O803        O  0.27164253  0.58703029  0.39269497    -0.82800
C804        C  0.29878803  0.58307717  0.39900791     0.97700
O805        O  0.30927112  0.60144401  0.41097902    -0.82800
O806        O  0.27608130  0.58564458  0.44165413    -0.85500
C807        C  0.25241221  0.58257831  0.45175304     1.02200
O808        O  0.22970704  0.60161796  0.45050669    -0.78300
O809        O  0.19998141  0.58954299  0.41835105    -0.78400
C810        C  0.19570622  0.58783580  0.40154055     1.02200
Cr811      Cr  0.25069828  0.62855708  0.39406599     1.93700
Cr812      Cr  0.28677074  0.62625051  0.42980258     1.93200
Cr813      Cr  0.21494589  0.62868591  0.43003622     1.39100
O814        O  0.25072837  0.62774934  0.41801002    -1.23500
O815        O  0.02627038  0.84039755  0.36202081    -0.85800
O816        O  0.04108538  0.90310681  0.35865940    -0.82800
C817        C  0.04370454  0.92988087  0.35148314     0.97700
O818        O  0.02513668  0.93835615  0.33910939    -0.82800
O819        O  0.03986066  0.90174691  0.30964977    -0.85500
C820        C  0.04171815  0.87781990  0.29967400     1.02200
O821        O  0.02306418  0.85507525  0.30185270    -0.78200
O822        O  0.04037338  0.82921156  0.33431288    -0.78400
C823        C  0.04461046  0.82678483  0.35111318     1.02200
O824        O  0.46097695  0.85654403  0.36101633    -0.85800
O825        O  0.47621304  0.91959296  0.36036155    -0.82800
C826        C  0.45742978  0.93198254  0.34920898     0.97700
O827        O  0.45998031  0.92660689  0.33254800    -0.82800
O828        O  0.47492431  0.89534228  0.30135062    -0.85500
C829        C  0.45601194  0.87249049  0.30078803     1.02200
O830        O  0.45865281  0.85004503  0.31186870    -0.78300
O831        O  0.47566506  0.81856628  0.34291702    -0.78400
C832        C  0.45734885  0.82920010  0.35482932     1.02200
Cr833      Cr  0.50103932  0.87973464  0.35863558     1.93700
Cr834      Cr  0.49999750  0.91281993  0.32171549     1.93200
Cr835      Cr  0.49950169  0.84103237  0.32366446     1.39100
O836        O  0.50011934  0.87786683  0.33470381    -1.23500
O837        O  0.03791812  0.64451335  0.11421858    -0.85800
O838        O  0.47616293  0.66226700  0.11224727    -0.82800
C839        C  0.44946699  0.66606056  0.10534142     0.97700
O840        O  0.43918394  0.64700246  0.09367181    -0.82800
O841        O  0.47284467  0.66120484  0.06325956    -0.85500
C842        C  0.49629968  0.66346794  0.05299827     1.02200
O843        O  0.01893680  0.64452782  0.05456813    -0.78200
O844        O  0.04701864  0.66086609  0.08666644    -0.78400
C845        C  0.05088330  0.66361116  0.10347249     1.02200
O846        O  0.01926864  0.58016590  0.11276211    -0.85800
O847        O  0.45750702  0.59776852  0.11430324    -0.82800
C848        C  0.44525042  0.57821826  0.10361817     0.97700
O849        O  0.44906128  0.58111470  0.08682197    -0.82800
O850        O  0.47795140  0.59574886  0.05488764    -0.85500
C851        C  0.50051269  0.57657456  0.05400186     1.02200
O852        O  0.02383502  0.57958519  0.06427563    -0.78300
O853        O  0.05691995  0.59526763  0.09454776    -0.78400
C854        C  0.04635973  0.57651764  0.10634751     1.02200
Cr855      Cr  0.49771655  0.62118171  0.11156251     1.93700
Cr856      Cr  0.46237247  0.62122541  0.07560191     1.93200
Cr857      Cr  0.03400237  0.62019374  0.07591185     1.39100
O858        O  0.49801708  0.62092008  0.08766651    -1.23500
O859        O  0.28872217  0.89252052  0.14356257    -0.85800
O860        O  0.27119742  0.83059586  0.14216367    -0.82800
C861        C  0.29067149  0.81789620  0.15278702     0.97700
O862        O  0.28840114  0.82193053  0.16960132    -0.82800
O863        O  0.27277390  0.84946689  0.20209006    -0.85500
C864        C  0.29191191  0.87207012  0.20317468     1.02200
O865        O  0.28940117  0.89526717  0.19268781    -0.78200
O866        O  0.27539788  0.92952453  0.16273495    -0.78400
C867        C  0.29354170  0.91895418  0.15068484     1.02200
O868        O  0.22457275  0.91167300  0.14238589    -0.85800
O869        O  0.20680151  0.84936935  0.14430543    -0.82800
C870        C  0.20360178  0.82213427  0.15080652     0.97700
O871        O  0.22319848  0.81157974  0.16209832    -0.82800
O872        O  0.20789589  0.84486062  0.19221229    -0.85500
C873        C  0.20447395  0.86853357  0.20220778     1.02200
O874        O  0.22403290  0.89085716  0.20169079    -0.78300
O875        O  0.20968875  0.92057382  0.17017810    -0.78400
C876        C  0.20628582  0.92481218  0.15347195     1.02200
Cr877      Cr  0.24783623  0.87103209  0.14490205     1.93700
Cr878      Cr  0.24817747  0.83463548  0.18062493     1.93200
Cr879      Cr  0.24954617  0.90643555  0.18090499     1.39100
O880        O  0.24854935  0.87077583  0.16880973    -1.23500
C881        C  0.07143334  0.68824371  0.11096484    -0.01700
C882        C  0.08147678  0.68586740  0.12890480    -0.09700
C883        C  0.10116000  0.70839652  0.13636633    -0.18600
C884        C  0.11151391  0.73439422  0.12606382     0.03800
C885        C  0.10045684  0.73735011  0.10803546     0.18000
C886        C  0.08082489  0.71419498  0.10060063    -0.20000
C887        C  0.10922827  0.76327916  0.09751639    -0.21200
C888        C  0.12939296  0.78600252  0.10437787    -0.19800
C889        C  0.14169143  0.78305769  0.12181478     0.19400
C890        C  0.13279495  0.75726633  0.13294445     0.01500
C891        C  0.14633805  0.75491612  0.15030228    -0.14500
C892        C  0.16861152  0.77654269  0.15604507    -0.12200
C893        C  0.17784204  0.80149251  0.14492261     0.01100
C894        C  0.16367463  0.80519413  0.12799156    -0.24400
H895        H  0.07437459  0.66619045  0.13728081     0.09100
H896        H  0.10771555  0.70469517  0.15020116     0.12600
H897        H  0.07275027  0.71646054  0.08679500     0.11400
H898        H  0.10063256  0.76588558  0.08383590     0.12600
H899        H  0.13597576  0.80562724  0.09583374     0.11600
H900        H  0.14099688  0.73626467  0.15959657     0.08700
H901        H  0.17899407  0.77343151  0.16927988     0.11900
H902        H  0.17079704  0.82443770  0.11930466     0.13800
C903        C  0.31526323  0.79740768  0.14526783    -0.01700
C904        C  0.31359964  0.78810975  0.12717889    -0.09700
C905        C  0.33625357  0.76854286  0.11976675    -0.18600
C906        C  0.36163268  0.75757387  0.13025395     0.03800
C907        C  0.36350176  0.76738653  0.14856478     0.18000
C908        C  0.34036887  0.78706065  0.15589622    -0.20000
C909        C  0.38826316  0.75724871  0.15948344    -0.21200
C910        C  0.41089591  0.73694100  0.15272281    -0.19800
C911        C  0.40925488  0.72623198  0.13489787     0.19400
C912        C  0.38481314  0.73672723  0.12332564     0.01500
C913        C  0.38421586  0.72529208  0.10542661    -0.14500
C914        C  0.40583808  0.70307624  0.09962079    -0.12200
C915        C  0.42911089  0.69195152  0.11125614     0.01100
C916        C  0.43136939  0.70431305  0.12870788    -0.24400
H917        H  0.29443239  0.79574122  0.11866199     0.09100
H918        H  0.33299801  0.76235152  0.10581175     0.12600
H919        H  0.34193684  0.79432283  0.16989053     0.11400
H920        H  0.38993424  0.76478135  0.17341815     0.12600
H921        H  0.42952414  0.72914190  0.16159103     0.11600
H922        H  0.36700038  0.73244927  0.09564233     0.08700
H923        H  0.40408007  0.69421677  0.08595234     0.11900
H924        H  0.44945107  0.69578676  0.13774583     0.13800
C925        C  0.42585126  0.55248658  0.11101590    -0.01700
C926        C  0.42316589  0.54853804  0.12974011    -0.09700
C927        C  0.40422917  0.52501986  0.13698441    -0.18600
C928        C  0.38707638  0.50463491  0.12565615     0.03800
C929        C  0.39093100  0.50786396  0.10666895     0.18000
C930        C  0.41006832  0.53168964  0.09955569    -0.20000
C931        C  0.37533196  0.98757283  0.09487030    -0.21200
C932        C  0.35533500  0.96452021  0.10149981    -0.19800
C933        C  0.34992219  0.96168705  0.12005767     0.19400
C934        C  0.36576323  0.98164596  0.13244491     0.01500
C935        C  0.35853625  0.97860948  0.15101062    -0.14500
C936        C  0.33554160  0.95769875  0.15686292    -0.12200
C937        C  0.31975301  0.93857020  0.14454112     0.01100
C938        C  0.32771356  0.93987735  0.12624963    -0.24400
H939        H  0.43564711  0.56385069  0.13892342     0.09100
H940        H  0.40351481  0.52349473  0.15149491     0.12600
H941        H  0.41236049  0.53424357  0.08504595     0.11400
H942        H  0.37839129  0.98973576  0.08039406     0.12600
H943        H  0.34332073  0.94938724  0.09200442     0.11600
H944        H  0.36933745  0.49281404  0.16128743     0.08700
H945        H  0.32979438  0.95670086  0.17110723     0.11900
H946        H  0.31529077  0.92515880  0.11669658     0.13800
C947        C  0.18130951  0.94579719  0.14679267    -0.01700
C948        C  0.15765416  0.95617747  0.15843108    -0.09700
C949        C  0.13400880  0.97602662  0.15221594    -0.18600
C950        C  0.13342584  0.98640136  0.13406790     0.03800
C951        C  0.15767457  0.97597061  0.12235708     0.18000
C952        C  0.18105072  0.95567363  0.12873630    -0.20000
C953        C  0.15872093  0.98615291  0.10439548    -0.21200
C954        C  0.13652397  0.50709933  0.09786364    -0.19800
C955        C  0.11249539  0.51795522  0.10906711     0.19400
C956        C  0.11010293  0.50724488  0.12721206     0.01500
C957        C  0.08460632  0.51810395  0.13770325    -0.14500
C958        C  0.06325127  0.53971966  0.13068755    -0.12200
C959        C  0.06678756  0.55132186  0.11313427     0.01100
C960        C  0.09109173  0.53992721  0.10228789    -0.24400
H961        H  0.15732338  0.94884329  0.17244517     0.09100
H962        H  0.11681032  0.48314542  0.16202925     0.12600
H963        H  0.19939600  0.94793991  0.11964442     0.11400
H964        H  0.17713126  0.97824663  0.09540937     0.12600
H965        H  0.13826758  0.51500558  0.08397628     0.11600
H966        H  0.08058133  0.51051043  0.15139100     0.08700
H967        H  0.04446672  0.54814017  0.13923724     0.11900
H968        H  0.09354859  0.54846842  0.08854656     0.13800
C969        C  0.17818043  0.86994693  0.21507797    -0.01700
C970        C  0.15870293  0.84389027  0.21773692    -0.09700
C971        C  0.13498554  0.84464747  0.23066379    -0.18600
C972        C  0.13008876  0.87165827  0.24143159     0.03800
C973        C  0.14914338  0.89844389  0.23812593     0.18000
C974        C  0.17276349  0.89738759  0.22502951    -0.20000
C975        C  0.14504266  0.92593470  0.24818668    -0.21200
C976        C  0.12301057  0.92712143  0.26195179    -0.19800
C977        C  0.10454661  0.90085983  0.26595104     0.19400
C978        C  0.10748397  0.87287786  0.25558544     0.01500
C979        C  0.08809879  0.84713547  0.26009049    -0.14500
C980        C  0.06712670  0.84895178  0.27442543    -0.12200
C981        C  0.06461701  0.87638936  0.28476973     0.01100
C982        C  0.08330505  0.90234707  0.28038822    -0.24400
H983        H  0.16213767  0.82255392  0.21002526     0.09100
H984        H  0.12125536  0.82354566  0.23203793     0.12600
H985        H  0.18737322  0.91789964  0.22283537     0.11400
H986        H  0.15935026  0.94650694  0.24559333     0.12600
H987        H  0.12070038  0.94859654  0.26968727     0.11600
H988        H  0.08863008  0.82516388  0.25290822     0.08700
H989        H  0.05279921  0.82857564  0.27741951     0.11900
H990        H  0.08131759  0.92378328  0.28820122     0.13800
C991        C  0.31669591  0.87189550  0.21713676    -0.01700
C992        C  0.33871950  0.89624137  0.21766696    -0.09700
C993        C  0.36183121  0.89693589  0.23090808    -0.18600
C994        C  0.36373528  0.87316014  0.24424716     0.03800
C995        C  0.34152541  0.84830397  0.24361294     0.18000
C996        C  0.31834135  0.84786249  0.23013340    -0.20000
C997        C  0.34252732  0.82413455  0.25647791    -0.21200
C998        C  0.36510056  0.82415611  0.27002910    -0.19800
C999        C  0.38718883  0.84840216  0.27110236     0.19400
C1000       C  0.38679396  0.87324762  0.25819897     0.01500
C1001       C  0.40942897  0.89724256  0.25986575    -0.14500
C1002       C  0.43138521  0.89667490  0.27370421    -0.12200
C1003       C  0.43185289  0.87223822  0.28643574     0.01100
C1004       C  0.40965729  0.84804924  0.28502963    -0.24400
H1005       H  0.33811948  0.91503952  0.20777827     0.09100
H1006       H  0.37776796  0.91651387  0.23028481     0.12600
H1007       H  0.30141204  0.82887305  0.22986701     0.11400
H1008       H  0.32569105  0.80508331  0.25607512     0.12600
H1009       H  0.36520708  0.80512046  0.27978104     0.11600
H1010       H  0.41087595  0.91692389  0.25074199     0.08700
H1011       H  0.44824918  0.91566329  0.27434351     0.11900
H1012       H  0.40980091  0.82898877  0.29477449     0.13800
C1013       C  0.18294950  0.69994816  0.39308170    -0.01700
C1014       C  0.18659245  0.71086415  0.37536126    -0.09700
C1015       C  0.16588926  0.73296619  0.36813374    -0.18600
C1016       C  0.14095259  0.74518148  0.37856203     0.03800
C1017       C  0.13853802  0.73534132  0.39687561     0.18000
C1018       C  0.15913140  0.71263042  0.40384473    -0.20000
C1019       C  0.11534342  0.74792532  0.40807501    -0.21200
C1020       C  0.09396310  0.76961744  0.40137723    -0.19800
C1021       C  0.09471654  0.77860554  0.38319406     0.19400
C1022       C  0.11815924  0.76649975  0.37147978     0.01500
C1023       C  0.11710754  0.77549914  0.35308665    -0.14500
C1024       C  0.09349064  0.79521881  0.34659131    -0.12200
C1025       C  0.07039077  0.80697952  0.35818586     0.01100
C1026       C  0.07155273  0.79898878  0.37655666    -0.24400
H1027       H  0.20499537  0.70156138  0.36683978     0.09100
H1028       H  0.17001420  0.73998589  0.35435152     0.12600
H1029       H  0.15654182  0.70469299  0.41769258     0.11400
H1030       H  0.11362274  0.74081901  0.42210289     0.12600
H1031       H  0.07619467  0.77881593  0.41038387     0.11600
H1032       H  0.13370103  0.76705197  0.34327229     0.08700
H1033       H  0.09322080  0.80110221  0.33235619     0.11900
H1034       H  0.05375793  0.80785229  0.38566706     0.13800
C1035       C  0.32413457  0.69590804  0.39510126    -0.01700
C1036       C  0.32925569  0.69796604  0.37644666    -0.09700
C1037       C  0.34897877  0.72080734  0.36921834    -0.18600
C1038       C  0.36455376  0.74255841  0.38046256     0.03800
C1039       C  0.35843599  0.74124231  0.39932564     0.18000
C1040       C  0.33838271  0.71804886  0.40645539    -0.20000
C1041       C  0.37278846  0.76274868  0.41097022    -0.21200
C1042       C  0.39366174  0.78511889  0.40434037    -0.19800
C1043       C  0.40090271  0.78639473  0.38591475     0.19400
C1044       C  0.38634593  0.76516485  0.37369315     0.01500
C1045       C  0.39492086  0.76688605  0.35527941    -0.14500
C1046       C  0.41756338  0.78806997  0.34937515    -0.12200
C1047       C  0.43199130  0.80872159  0.36143866     0.01100
C1048       C  0.42318903  0.80826416  0.37965645    -0.24400
H1049       H  0.31821326  0.68154149  0.36728663     0.09100
H1050       H  0.35161364  0.72059746  0.35475978     0.12600
H1051       H  0.33421972  0.71700035  0.42088667     0.11400
H1052       H  0.36808919  0.76205323  0.42534666     0.12600
H1053       H  0.40462849  0.80119515  0.41374290     0.11600
H1054       H  0.38515026  0.75174823  0.34510481     0.08700
H1055       H  0.42394912  0.78824513  0.33521066     0.11900
H1056       H  0.43457787  0.82406563  0.38906123     0.13800
C1057       C  0.43312378  0.95368197  0.35587811    -0.01700
C1058       C  0.40578550  0.95920903  0.34595627    -0.09700
C1059       C  0.38242892  0.97901889  0.35267866    -0.18600
C1060       C  0.38602901  0.99431948  0.36949962     0.03800
C1061       C  0.41443661  0.98946056  0.37911712     0.18000
C1062       C  0.43732254  0.96903179  0.37239092    -0.20000
C1063       C  0.42001308  0.50514249  0.39536748    -0.21200
C1064       C  0.39801270  0.52583028  0.40228713    -0.19800
C1065       C  0.36964637  0.53081531  0.39331380     0.19400
C1066       C  0.36285509  0.51470963  0.37699121     0.01500
C1067       C  0.33320036  0.51978499  0.36896003    -0.14500
C1068       C  0.31192804  0.54119163  0.37637224    -0.12200
C1069       C  0.31955048  0.55814028  0.39195102     0.01100
C1070       C  0.34819137  0.55223466  0.40052661    -0.24400
H1071       H  0.40221376  0.94776951  0.33306878     0.09100
H1072       H  0.36202523  0.98217217  0.34432401     0.12600
H1073       H  0.45874266  0.96537076  0.37996650     0.11400
H1074       H  0.44171063  0.50165282  0.40268192     0.12600
H1075       H  0.40320900  0.53798911  0.41477727     0.11600
H1076       H  0.32582038  0.00764218  0.35694022     0.08700
H1077       H  0.28974789  0.54499862  0.36963811     0.11900
H1078       H  0.35412404  0.56474571  0.41279899     0.13800
C1079       C  0.06749036  0.95233264  0.35803887    -0.01700
C1080       C  0.07615491  0.97807721  0.34733050    -0.09700
C1081       C  0.09719218  0.00051284  0.35371700    -0.18600
C1082       C  0.11004895  0.99813215  0.37126045     0.03800
C1083       C  0.10107449  0.97199417  0.38210032     0.18000
C1084       C  0.08033551  0.94924613  0.37534786    -0.20000
C1085       C  0.11246579  0.96893729  0.39972423    -0.21200
C1086       C  0.13255551  0.99136689  0.40689422    -0.19800
C1087       C  0.14211182  0.51718443  0.39653502     0.19400
C1088       C  0.13121514  0.52083678  0.37850301     0.01500
C1089       C  0.14211932  0.54697936  0.36850089    -0.14500
C1090       C  0.16292735  0.56844762  0.37607705    -0.12200
C1091       C  0.17340796  0.56488902  0.39388951     0.01100
C1092       C  0.16273487  0.53927904  0.40408651    -0.24400
H1093       H  0.06651180  0.98098886  0.33390518     0.09100
H1094       H  0.10248352  0.51964706  0.34467389     0.12600
H1095       H  0.07345150  0.92958253  0.38380744     0.11400
H1096       H  0.10560257  0.94915390  0.40808273     0.12600
H1097       H  0.14082066  0.98839820  0.42062317     0.11600
H1098       H  0.13530317  0.55140574  0.35473589     0.08700
H1099       H  0.17074199  0.58809838  0.36790279     0.11900
H1100       H  0.17088716  0.53623360  0.41784029     0.13800
C1101       C  0.25112552  0.55744498  0.46572089    -0.01700
C1102       C  0.22290301  0.55133572  0.47476206    -0.09700
C1103       C  0.22121405  0.52893640  0.48852564    -0.18600
C1104       C  0.24795338  0.51181246  0.49393951     0.03800
C1105       C  0.27661719  0.51801549  0.48476830     0.18000
C1106       C  0.27788358  0.54037150  0.47069896    -0.20000
C1107       C  0.30395438  0.00221609  0.48989003    -0.21200
C1108       C  0.30352250  0.98053315  0.50398130    -0.19800
C1109       C  0.27566105  0.97375336  0.51318414     0.19400
C1110       C  0.24738157  0.98907843  0.50823953     0.01500
C1111       C  0.21983137  0.98092201  0.51784471    -0.14500
C1112       C  0.22046204  0.95875751  0.53183626    -0.12200
C1113       C  0.24841785  0.94380960  0.53669825     0.01100
C1114       C  0.27593742  0.95153696  0.52726839    -0.24400
H1115       H  0.20182558  0.56409634  0.47124041     0.09100
H1116       H  0.19867478  0.52591949  0.49482080     0.12600
H1117       H  0.29991975  0.54499991  0.46392003     0.11400
H1118       H  0.32591287  0.00684638  0.48304078     0.12600
H1119       H  0.32516351  0.96888507  0.50767266     0.11600
H1120       H  0.19733975  0.49105542  0.51479661     0.08700
H1121       H  0.19881948  0.95299030  0.53871601     0.11900
H1122       H  0.29776986  0.94013094  0.53085768     0.13800
C1123       C  0.25742343  0.80787102  0.53710112    -0.01700
C1124       C  0.28497314  0.79187106  0.53260464    -0.09700
C1125       C  0.28511711  0.76939283  0.51887993    -0.18600
C1126       C  0.25747191  0.76207442  0.50921647     0.03800
C1127       C  0.22947387  0.77793667  0.51412934     0.18000
C1128       C  0.22973329  0.80056426  0.52785689    -0.20000
C1129       C  0.20131355  0.77123220  0.50529741    -0.21200
C1130       C  0.20029110  0.74908452  0.49157208    -0.19800
C1131       C  0.22744274  0.73324517  0.48626099     0.19400
C1132       C  0.25648748  0.73956129  0.49494210     0.01500
C1133       C  0.28323009  0.72307822  0.48891912    -0.14500
C1134       C  0.28104078  0.70083844  0.47518528    -0.12200
C1135       C  0.25229571  0.69439303  0.46686786     0.01100
C1136       C  0.22563850  0.71095308  0.47234806    -0.24400
H1137       H  0.30666162  0.79701197  0.53956821     0.09100
H1138       H  0.30723648  0.75819268  0.51618701     0.12600
H1139       H  0.20817304  0.81257217  0.53133514     0.11400
H1140       H  0.17988242  0.78319716  0.50904787     0.12600
H1141       H  0.17809429  0.74436040  0.48503466     0.11600
H1142       H  0.30618471  0.72675540  0.49453785     0.08700
H1143       H  0.30209112  0.68860573  0.47105014     0.11900
H1144       H  0.20330028  0.70612894  0.46598024     0.13800
C1145       C  0.07520637  0.69476031  0.64642125    -0.01700
C1146       C  0.09563117  0.71066976  0.65798579    -0.09700
C1147       C  0.11847127  0.73088364  0.65111222    -0.18600
C1148       C  0.12158683  0.73601217  0.63229815     0.03800
C1149       C  0.10170424  0.71878691  0.62056586     0.18000
C1150       C  0.07885225  0.69845557  0.62767624    -0.20000
C1151       C  0.10431185  0.72244231  0.60182275    -0.21200
C1152       C  0.12564681  0.74364064  0.59446028    -0.19800
C1153       C  0.14473664  0.76190017  0.60566030     0.19400
C1154       C  0.14320553  0.75806407  0.62474104     0.01500
C1155       C  0.16276535  0.77713191  0.63547731    -0.14500
C1156       C  0.18224620  0.79961516  0.62769313    -0.12200
C1157       C  0.18325091  0.80397237  0.60893765     0.01100
C1158       C  0.16481659  0.78455152  0.59793926    -0.24400
H1159       H  0.09363288  0.70794833  0.67248501     0.09100
H1160       H  0.13305513  0.74236762  0.66093991     0.12600
H1161       H  0.06345902  0.68593504  0.61854392     0.11400
H1162       H  0.08941705  0.70913735  0.59279077     0.12600
H1163       H  0.12676790  0.74622685  0.57991434     0.11600
H1164       H  0.16320904  0.77575560  0.64998685     0.08700
H1165       H  0.19638121  0.81401395  0.63656102     0.11900
H1166       H  0.16544912  0.78759841  0.58340725     0.13800
C1167       C  0.32943685  0.81032973  0.61016223    -0.01700
C1168       C  0.36150305  0.81661652  0.60834977    -0.09700
C1169       C  0.38394774  0.79550832  0.61471578    -0.18600
C1170       C  0.37511487  0.76687572  0.62300319     0.03800
C1171       C  0.34256434  0.76019760  0.62450450     0.18000
C1172       C  0.32011454  0.78205696  0.61834866    -0.20000
C1173       C  0.33265318  0.73165267  0.63204079    -0.21200
C1174       C  0.35432637  0.70951873  0.63805217    -0.19800
C1175       C  0.38650744  0.71558120  0.63703990     0.19400
C1176       C  0.39737713  0.74458269  0.62973728     0.01500
C1177       C  0.43005126  0.75015669  0.62973973    -0.14500
C1178       C  0.45090090  0.72797082  0.63671638    -0.12200
C1179       C  0.44013097  0.69923531  0.64348552     0.01100
C1180       C  0.40793316  0.69298227  0.64349616    -0.24400
H1181       H  0.36939838  0.83826624  0.60209677     0.09100
H1182       H  0.40803256  0.80217926  0.61273331     0.12600
H1183       H  0.29537280  0.77680776  0.61964299     0.11400
H1184       H  0.30792534  0.72628992  0.63317596     0.12600
H1185       H  0.34582714  0.68759343  0.64370318     0.11600
H1186       H  0.44025037  0.77165666  0.62476428     0.08700
H1187       H  0.47573804  0.73318440  0.63668668     0.11900
H1188       H  0.39954323  0.67088503  0.64900504     0.13800
C1189       C  0.32450998  0.94577431  0.60879981    -0.01700
C1190       C  0.32331414  0.95193414  0.62736303    -0.09700
C1191       C  0.34302479  0.97413206  0.63517400    -0.18600
C1192       C  0.36501344  0.99086433  0.62463481     0.03800
C1193       C  0.36568186  0.98505281  0.60571497     0.18000
C1194       C  0.34535842  0.96286711  0.59797943    -0.20000
C1195       C  0.38707477  0.00093476  0.59467761    -0.21200
C1196       C  0.40828190  0.02205677  0.60205654    -0.19800
C1197       C  0.40859480  0.52782649  0.62064830     0.19400
C1198       C  0.38676162  0.51263024  0.63221974     0.01500
C1199       C  0.38809583  0.51947691  0.65090382    -0.14500
C1200       C  0.41076715  0.53977512  0.65781388    -0.12200
C1201       C  0.43271594  0.55401524  0.64638389     0.01100
C1202       C  0.43109533  0.54832110  0.62776869    -0.24400
H1203       H  0.30716110  0.93927796  0.63601075     0.09100
H1204       H  0.34071999  0.47725326  0.64953508     0.12600
H1205       H  0.34645964  0.95823077  0.58360331     0.11400
H1206       H  0.38768614  0.99668894  0.58025950     0.12600
H1207       H  0.42482991  0.03368600  0.59317374     0.11600
H1208       H  0.37224162  0.50928191  0.66059322     0.08700
H1209       H  0.41134468  0.54397528  0.67222927     0.11900
H1210       H  0.44783279  0.55938836  0.61875878     0.13800
C1211       C  0.06961650  0.55061647  0.64583911    -0.01700
C1212       C  0.09973689  0.56124555  0.64148271    -0.09700
C1213       C  0.12281641  0.54020915  0.63557562    -0.18600
C1214       C  0.11611779  0.50783965  0.63330798     0.03800
C1215       C  0.08517724  0.49747152  0.63722916     0.18000
C1216       C  0.06265926  0.51861459  0.64386835    -0.20000
C1217       C  0.07663357  0.96618165  0.63412834    -0.21200
C1218       C  0.09791215  0.94505490  0.62677292    -0.19800
C1219       C  0.12868063  0.95431067  0.62302079     0.19400
C1220       C  0.13860597  0.98553366  0.62681345     0.01500
C1221       C  0.17060387  0.99286064  0.62404412    -0.14500
C1222       C  0.19150838  0.97037555  0.61727339    -0.12200
C1223       C  0.18108440  0.94025412  0.61260185     0.01100
C1224       C  0.14964215  0.93239017  0.61556496    -0.24400
H1225       H  0.10557251  0.58591256  0.64286088     0.09100
H1226       H  0.14542775  0.55006060  0.63241801     0.12600
H1227       H  0.03923676  0.51032069  0.64694611     0.11400
H1228       H  0.05306572  0.95815749  0.63701199     0.12600
H1229       H  0.09030164  0.92119312  0.62413699     0.11600
H1230       H  0.18020743  0.51560788  0.62726385     0.08700
H1231       H  0.21583052  0.97676839  0.61532237     0.11900
H1232       H  0.14162155  0.90884253  0.61239513     0.13800
C1233       C  0.18368206  0.61625138  0.78899905    -0.01700
C1234       C  0.16665941  0.58871464  0.78560638    -0.09700
C1235       C  0.14339193  0.58806883  0.77234132    -0.18600
C1236       C  0.13625495  0.61517029  0.76202357     0.03800
C1237       C  0.15249045  0.64342991  0.76616541     0.18000
C1238       C  0.17608104  0.64363614  0.77936176    -0.20000
C1239       C  0.14521933  0.67134440  0.75705501    -0.21200
C1240       C  0.12226582  0.67180604  0.74377837    -0.19800
C1241       C  0.10663385  0.64418683  0.73891694     0.19400
C1242       C  0.11366452  0.61533239  0.74777171     0.01500
C1243       C  0.09833039  0.58784876  0.74164484    -0.14500
C1244       C  0.07676159  0.58911250  0.72746723    -0.12200
C1245       C  0.06928569  0.61777694  0.71920116     0.01100
C1246       C  0.08424685  0.64522929  0.72505411    -0.24400
H1247       H  0.17160481  0.56736779  0.79307678     0.09100
H1248       H  0.13128942  0.56606642  0.77054252     0.12600
H1249       H  0.18858908  0.66528696  0.78211362     0.11400
H1250       H  0.15732340  0.69302435  0.76025560     0.12600
H1251       H  0.11709402  0.69384275  0.73703577     0.11600
H1252       H  0.10290671  0.56495864  0.74731944     0.08700
H1253       H  0.06545615  0.56760226  0.72315628     0.11900
H1254       H  0.07885329  0.66744730  0.71854724     0.13800
C1255       C  0.43333306  0.63084903  0.71722989    -0.01700
C1256       C  0.42186102  0.65934483  0.72396620    -0.09700
C1257       C  0.39928808  0.65972347  0.73767907    -0.18600
C1258       C  0.38717041  0.63141234  0.74498405     0.03800
C1259       C  0.39762429  0.60264122  0.73734759     0.18000
C1260       C  0.42069721  0.60260851  0.72382301    -0.20000
C1261       C  0.38516813  0.57400989  0.74333510    -0.21200
C1262       C  0.36265953  0.57325938  0.75689780    -0.19800
C1263       C  0.35263012  0.60105642  0.76516099     0.19400
C1264       C  0.36504943  0.63052799  0.75951458     0.01500
C1265       C  0.35523337  0.65770123  0.76891705    -0.14500
C1266       C  0.33354758  0.65573694  0.78302504    -0.12200
C1267       C  0.32055974  0.62678302  0.78814483     0.01100
C1268       C  0.33035844  0.59950134  0.77914453    -0.24400
H1269       H  0.43094416  0.68147419  0.71893704     0.09100
H1270       H  0.39170297  0.68252638  0.74223910     0.12600
H1271       H  0.42889505  0.58041473  0.71840620     0.11400
H1272       H  0.39283404  0.55201020  0.73744622     0.12600
H1273       H  0.35337388  0.55070555  0.76114562     0.11600
H1274       H  0.36418840  0.68078604  0.76583416     0.08700
H1275       H  0.32654580  0.67717143  0.78978168     0.11900
H1276       H  0.32080535  0.57689823  0.78312360     0.13800
C1277       C  0.50068013  0.93876498  0.96982140    -0.01700
C1278       C  0.47602161  0.96034002  0.97083224    -0.09700
C1279       C  0.47491697  0.98261151  0.98453257    -0.18600
C1280       C  0.49859187  0.98406504  0.99782482     0.03800
C1281       C  0.02407829  0.96272748  0.99648953     0.18000
C1282       C  0.02481340  0.94024119  0.98263465    -0.20000
C1283       C  0.04867544  0.96404776  0.00895292    -0.21200
C1284       C  0.04867533  0.98642250  0.02262654    -0.19800
C1285       C  0.02376522  0.50757678  0.02438179     0.19400
C1286       C  0.49806526  0.50624017  0.01221310     0.01500
C1287       C  0.47282767  0.52709559  0.01500507    -0.14500
C1288       C  0.47370497  0.54927393  0.02873708    -0.12200
C1289       C  0.49961705  0.55151682  0.04023639     0.01100
C1290       C  0.02441760  0.53022287  0.03817470    -0.24400
H1291       H  0.45725816  0.95998258  0.96100245     0.09100
H1292       H  0.45532080  0.49851274  0.98418445     0.12600
H1293       H  0.04415999  0.92379678  0.98189250     0.11400
H1294       H  0.06821494  0.94788486  0.00800255     0.12600
H1295       H  0.06825057  0.98713272  0.03191795     0.11600
H1296       H  0.45193786  0.52687943  0.00688218     0.08700
H1297       H  0.45393866  0.56501512  0.03019885     0.11900
H1298       H  0.04438092  0.53144165  0.04717950     0.13800
C1299       C  0.50168882  0.80208702  0.96882084    -0.01700
C1300       C  0.02559118  0.77966058  0.96972931    -0.09700
C1301       C  0.02530735  0.75642087  0.98301015    -0.18600
C1302       C  0.00097749  0.75490857  0.99595253     0.03800
C1303       C  0.47619191  0.77704281  0.99459660     0.18000
C1304       C  0.47684911  0.80040352  0.98119689    -0.20000
C1305       C  0.45093616  0.77577356  0.00663651    -0.21200
C1306       C  0.44978228  0.75293134  0.02007876    -0.19800
C1307       C  0.47419859  0.73127139  0.02205275     0.19400
C1308       C  0.00032195  0.73219621  0.01013469     0.01500
C1309       C  0.02493739  0.71066828  0.01310436    -0.14500
C1310       C  0.02341383  0.68879648  0.02705193    -0.12200
C1311       C  0.49738945  0.68744622  0.03854955     0.01100
C1312       C  0.47281816  0.70882982  0.03599063    -0.24400
H1313       H  0.04478731  0.78011389  0.96016675     0.09100
H1314       H  0.04440651  0.73991997  0.98267477     0.12600
H1315       H  0.45800902  0.81743948  0.98050070     0.11400
H1316       H  0.43187540  0.79249439  0.00560676     0.12600
H1317       H  0.42983838  0.75244770  0.02912916     0.11600
H1318       H  0.04593146  0.71030630  0.00505657     0.08700
H1319       H  0.04288648  0.67276504  0.02878473     0.11900
H1320       H  0.45266669  0.70814142  0.04489335     0.13800
C1321       C  0.07070798  0.80167046  0.89498796    -0.01700
C1322       C  0.06519238  0.78876835  0.87789661    -0.09700
C1323       C  0.08621975  0.76728985  0.87031524    -0.18600
C1324       C  0.11345881  0.75778266  0.87973432     0.03800
C1325       C  0.11825345  0.77014597  0.89734761     0.18000
C1326       C  0.09714566  0.79193442  0.90468739    -0.20000
C1327       C  0.14426591  0.76095560  0.90752495    -0.21200
C1328       C  0.16585888  0.73982549  0.90057071    -0.19800
C1329       C  0.16222457  0.72767533  0.88316649     0.19400
C1330       C  0.13614123  0.73657395  0.87238815     0.01500
C1331       C  0.13426913  0.72417050  0.85468947    -0.12900
C1332       C  0.15729213  0.70378988  0.84807059    -0.12200
C1333       C  0.18264683  0.69480114  0.85890264     0.01100
C1334       C  0.18482185  0.70683019  0.87645461    -0.24400
H1335       H  0.04490267  0.79588665  0.87013779     0.09100
H1336       H  0.08054311  0.75860091  0.85706286     0.12600
H1337       H  0.10143617  0.80149461  0.91802123     0.11400
H1338       H  0.14796034  0.77019911  0.92098122     0.12600
H1339       H  0.18574601  0.73317017  0.90881690     0.11600
H1340       H  0.11551223  0.73005010  0.84556972     0.08700
H1341       H  0.15512763  0.69488565  0.83443858     0.11900
H1342       H  0.20455410  0.70036867  0.88488722     0.13800
C1343       C  0.31638010  0.69468035  0.86377192    -0.01700
C1344       C  0.33106969  0.68827241  0.88029804    -0.09700
C1345       C  0.35185782  0.70986759  0.88798259    -0.18600
C1346       C  0.35893358  0.73863815  0.87923411     0.03800
C1347       C  0.34429091  0.74475637  0.86235171     0.18000
C1348       C  0.32312706  0.72306870  0.85493418    -0.20000
C1349       C  0.35099888  0.77241295  0.85284619    -0.21200
C1350       C  0.37245811  0.79396295  0.85954854    -0.19800
C1351       C  0.38732665  0.78871954  0.87610237     0.19400
C1352       C  0.38031309  0.76133830  0.88641415     0.01500
C1353       C  0.39499796  0.75801324  0.90343221    -0.14500
C1354       C  0.41623279  0.78053249  0.90968352    -0.12200
C1355       C  0.42389309  0.80684940  0.89914454     0.01100
C1356       C  0.40920071  0.81081375  0.88239255    -0.24400
H1357       H  0.32622764  0.66657415  0.88745807     0.09100
H1358       H  0.36225743  0.70321401  0.90067733     0.12600
H1359       H  0.31204862  0.72825871  0.84210186     0.11400
H1360       H  0.33987001  0.77722752  0.83998848     0.12600
H1361       H  0.37744757  0.81493000  0.85171511     0.11600
H1362       H  0.39039317  0.73840628  0.91228244     0.08700
H1363       H  0.42703140  0.77710519  0.92277001     0.11900
H1364       H  0.41447990  0.83143770  0.87430825     0.13800
C1365       C  0.32252725  0.55045947  0.86091340    -0.01700
C1366       C  0.34815467  0.54180964  0.85020949    -0.09700
C1367       C  0.37209109  0.52298905  0.85720914    -0.18600
C1368       C  0.37090553  0.51170161  0.87518438     0.03800
C1369       C  0.34483254  0.52054344  0.88598025     0.18000
C1370       C  0.32134438  0.54010130  0.87889929    -0.20000
C1371       C  0.34183216  0.50906274  0.90362312    -0.21200
C1372       C  0.36341941  0.48775888  0.91051792    -0.19800
C1373       C  0.38898543  0.97806542  0.90010849     0.19400
C1374       C  0.39386022  0.99088358  0.88258481     0.01500
C1375       C  0.42116440  0.98174979  0.87313374    -0.14500
C1376       C  0.44137021  0.95901449  0.88019661    -0.12200
C1377       C  0.43498660  0.94457622  0.89680899     0.01100
C1378       C  0.40928013  0.95496786  0.90694653    -0.24400
H1379       H  0.34970648  0.54955582  0.83629598     0.09100
H1380       H  0.39074752  0.01695612  0.84805601     0.12600
H1381       H  0.30155337  0.54648061  0.88730083     0.11400
H1382       H  0.32209408  0.51582959  0.91195408     0.12600
H1383       H  0.35985371  0.47847197  0.92400300     0.11600
H1384       H  0.42738349  0.99152814  0.86018633     0.08700
H1385       H  0.46151558  0.95194364  0.87230008     0.11900
H1386       H  0.40469461  0.94462059  0.92008125     0.13800
C1387       C  0.07772073  0.93709755  0.89867268    -0.01700
C1388       C  0.08018603  0.96661350  0.90686454    -0.09700
C1389       C  0.10024097  0.98957187  0.89977734    -0.18600
C1390       C  0.11907436  0.98331397  0.88444850     0.03800
C1391       C  0.11726783  0.95281068  0.87669593     0.18000
C1392       C  0.09630179  0.93039345  0.88359748    -0.20000
C1393       C  0.13663450  0.94467428  0.86220538    -0.21200
C1394       C  0.15805719  0.96612018  0.85527954    -0.19800
C1395       C  0.16005678  0.49653623  0.86233985     0.19400
C1396       C  0.14012110  0.50585775  0.87675661     0.01500
C1397       C  0.14213280  0.53732737  0.88276730    -0.14500
C1398       C  0.16400063  0.55814122  0.87534227    -0.12200
C1399       C  0.18464367  0.54838874  0.86172634     0.01100
C1400       C  0.18210586  0.51762370  0.85510802    -0.24400
H1401       H  0.06612365  0.97214353  0.91861447     0.09100
H1402       H  0.10089325  0.51176599  0.90675674     0.12600
H1403       H  0.09489278  0.90732446  0.87743512     0.11400
H1404       H  0.13551740  0.92137715  0.85634076     0.12600
H1405       H  0.17307480  0.95889754  0.84424295     0.11600
H1406       H  0.12705081  0.54657971  0.89314371     0.08700
H1407       H  0.16501408  0.58191938  0.88051169     0.11900
H1408       H  0.19755774  0.50988493  0.84438299     0.13800
O1409       O  0.98098891  0.41315496  0.89655537    -0.85800
O1410       O  0.54257083  0.39452365  0.89477652    -0.82800
C1411       C  0.55588911  0.41309821  0.90569313     0.97700
O1412       O  0.55142336  0.41040605  0.92244822    -0.82800
O1413       O  0.52282153  0.39487953  0.95457634    -0.85500
C1414       C  0.00061547  0.41446021  0.95561930     1.02200
O1415       O  0.97773445  0.41262237  0.94497979    -0.78200
O1416       O  0.94330702  0.39929222  0.91501140    -0.78400
C1417       C  0.95429753  0.41795441  0.90326496     1.02200
O1418       O  0.96048199  0.34861323  0.89475707    -0.85800
O1419       O  0.52272611  0.33017729  0.89619353    -0.82800
C1420       C  0.54995449  0.32635418  0.90242385     0.97700
O1421       O  0.56034251  0.34453891  0.91455726    -0.82800
O1422       O  0.52611831  0.32976470  0.94475570    -0.85500
C1423       C  0.00281214  0.32736870  0.95512669     1.02200
O1424       O  0.98075044  0.34715999  0.95427676    -0.78300
O1425       O  0.95132470  0.33311384  0.92248884    -0.78400
C1426       C  0.94660471  0.33048165  0.90578472     1.02200
Cr1427     Cr  0.00162282  0.37156094  0.89737626     1.93700
Cr1428     Cr  0.53751380  0.37001698  0.93317176     1.93200
Cr1429     Cr  0.96597454  0.37289205  0.93326301     1.39100
O1430       O  0.00169286  0.37136259  0.92126531    -1.23500
O1431       O  0.77663902  0.08172831  0.86383085    -0.85800
O1432       O  0.79077702  0.14498286  0.86236473    -0.82800
C1433       C  0.79338655  0.17237324  0.85595390     0.97700
O1434       O  0.77559031  0.18143465  0.84325910    -0.82800
O1435       O  0.79196492  0.14846262  0.81274281    -0.85500
C1436       C  0.79626891  0.12523039  0.80248896     1.02200
O1437       O  0.77914557  0.10102938  0.80393969    -0.78200
O1438       O  0.79442744  0.07368980  0.83651182    -0.78400
C1439       C  0.79679919  0.06981920  0.85334358     1.02200
O1440       O  0.71131093  0.09748719  0.86092280    -0.85800
O1441       O  0.72583175  0.16046940  0.86306316    -0.82800
C1442       C  0.70726519  0.17340588  0.85203017     0.97700
O1443       O  0.71049676  0.16897588  0.83532490    -0.82800
O1444       O  0.72704090  0.14037282  0.80360178    -0.85500
C1445       C  0.70932081  0.11657092  0.80250430     1.02200
O1446       O  0.71384860  0.09300408  0.81253780    -0.78300
O1447       O  0.72902808  0.06024652  0.84329884    -0.78400
C1448       C  0.70926842  0.06993735  0.85479762     1.02200
Cr1449     Cr  0.75119995  0.12107136  0.86064438     1.93700
Cr1450     Cr  0.75138568  0.15698421  0.82468207     1.93200
Cr1451     Cr  0.75403491  0.08478171  0.82498151     1.39100
O1452       O  0.75232352  0.12099813  0.83672490    -1.23500
O1453       O  0.79303740  0.40049124  0.61182584    -0.85800
O1454       O  0.73036433  0.41439106  0.61083300    -0.82800
C1455       C  0.70282976  0.41676802  0.60483618     0.97700
O1456       O  0.69323512  0.39839293  0.59258433    -0.82800
O1457       O  0.72594364  0.41544371  0.56152590    -0.85500
C1458       C  0.74900789  0.41932451  0.55104384     1.02200
O1459       O  0.77268536  0.40161269  0.55226826    -0.78200
O1460       O  0.80103608  0.41792957  0.58435785    -0.78400
C1461       C  0.80494051  0.42044404  0.60117813     1.02200
O1462       O  0.77885211  0.33458924  0.60961967    -0.85800
O1463       O  0.71587706  0.34854253  0.61209174    -0.82800
C1464       C  0.70281742  0.32961273  0.60134119     0.97700
O1465       O  0.70569469  0.33333091  0.58452163    -0.82800
O1466       O  0.73370006  0.35036999  0.55253022    -0.85500
C1467       C  0.75737033  0.33264002  0.55109416     1.02200
O1468       O  0.78094890  0.33664233  0.56109571    -0.78300
O1469       O  0.81482003  0.35311551  0.59140570    -0.78400
C1470       C  0.80628492  0.33346642  0.60328543     1.02200
Cr1471     Cr  0.75444698  0.37452786  0.60921694     1.93700
Cr1472     Cr  0.71749495  0.37452517  0.57371184     1.93200
Cr1473     Cr  0.78952659  0.37717500  0.57322394     1.39100
O1474       O  0.75377187  0.37542071  0.58535211    -1.23500
O1475       O  0.97811416  0.08558300  0.64323204    -0.85800
O1476       O  0.96417879  0.14889372  0.64497167    -0.82800
C1477       C  0.96279190  0.17657749  0.65102865     0.97700
O1478       O  0.98198619  0.18581312  0.66292840    -0.82800
O1479       O  0.96463625  0.15381399  0.69393342    -0.85500
C1480       C  0.95903208  0.13016350  0.70376512     1.02200
O1481       O  0.97578344  0.10572023  0.70260082    -0.78200
O1482       O  0.96020680  0.07827965  0.67053277    -0.78400
C1483       C  0.95795776  0.07394126  0.65378306     1.02200
O1484       O  0.54358794  0.10014831  0.64576125    -0.85800
O1485       O  0.52977705  0.16326688  0.64313155    -0.82800
C1486       C  0.54952227  0.17514434  0.65380645     0.97700
O1487       O  0.54652010  0.17126900  0.67061335    -0.82800
O1488       O  0.52937379  0.14411684  0.70290868    -0.85500
C1489       C  0.54543743  0.11930701  0.70477021     1.02200
O1490       O  0.54066996  0.09578977  0.69479773    -0.78300
O1491       O  0.52526337  0.06346257  0.66377976    -0.78400
C1492       C  0.54520430  0.07270373  0.65223624     1.02200
Cr1493     Cr  0.00385406  0.12447330  0.64613463     1.93700
Cr1494     Cr  0.00546489  0.16094215  0.68170672     1.93200
Cr1495     Cr  0.00071273  0.08864151  0.68196892     1.39100
O1496       O  0.00338331  0.12470224  0.67002967    -1.23500
O1497       O  0.72981319  0.16997676  0.39337765    -0.85800
O1498       O  0.79130632  0.15146447  0.39154643    -0.82800
C1499       C  0.80406597  0.17044926  0.40239234     0.97700
O1500       O  0.80035666  0.16698097  0.41917593    -0.82800
O1501       O  0.77251571  0.15050980  0.45125657    -0.85500
C1502       C  0.75032255  0.16990045  0.45281203     1.02200
O1503       O  0.72654779  0.16785379  0.44280821    -0.78200
O1504       O  0.69249001  0.15619285  0.41220503    -0.78400
C1505       C  0.70301815  0.17438960  0.40006697     1.02200
O1506       O  0.70990629  0.10634292  0.39099822    -0.85800
O1507       O  0.77164242  0.08703007  0.39269472    -0.82800
C1508       C  0.79878788  0.08307689  0.39900767     0.97700
O1509       O  0.80927100  0.10144369  0.41097881    -0.82800
O1510       O  0.77608135  0.08564456  0.44165409    -0.85500
C1511       C  0.75241230  0.08257839  0.45175305     1.02200
O1512       O  0.72970707  0.10161794  0.45050661    -0.78300
O1513       O  0.69998135  0.08954269  0.41835100    -0.78400
C1514       C  0.69570624  0.08783541  0.40154048     1.02200
Cr1515     Cr  0.75069813  0.12855684  0.39406581     1.93700
Cr1516     Cr  0.78677072  0.12625037  0.42980236     1.93200
Cr1517     Cr  0.71494582  0.12868569  0.43003607     1.39100
O1518       O  0.75072829  0.12774913  0.41800985    -1.23500
O1519       O  0.52627021  0.34039769  0.36202087    -0.85800
O1520       O  0.54108548  0.40310690  0.35865945    -0.82800
C1521       C  0.54370469  0.42988094  0.35148317     0.97700
O1522       O  0.52513689  0.43835620  0.33910938    -0.82800
O1523       O  0.53986044  0.40174682  0.30964966    -0.85500
C1524       C  0.54171768  0.37781982  0.29967386     1.02200
O1525       O  0.52306375  0.35507515  0.30185272    -0.78200
O1526       O  0.54037296  0.32921141  0.33431291    -0.78400
C1527       C  0.54461010  0.32678474  0.35111323     1.02200
O1528       O  0.96097682  0.35654454  0.36101670    -0.85800
O1529       O  0.97621325  0.41959336  0.36036172    -0.82800
C1530       C  0.95742997  0.43198295  0.34920916     0.97700
O1531       O  0.95998035  0.42660719  0.33254819    -0.82800
O1532       O  0.97492415  0.39534246  0.30135078    -0.85500
C1533       C  0.95601158  0.37249084  0.30078826     1.02200
O1534       O  0.95865227  0.35004544  0.31186898    -0.78300
O1535       O  0.97566431  0.31856667  0.34291729    -0.78400
C1536       C  0.95734829  0.32920071  0.35482963     1.02200
Cr1537     Cr  0.00103934  0.37973490  0.35863577     1.93700
Cr1538     Cr  0.99999743  0.41282002  0.32171562     1.93200
Cr1539     Cr  0.99950112  0.34103248  0.32366468     1.39100
O1540       O  0.00011915  0.37786697  0.33470399    -1.23500
O1541       O  0.53791821  0.14451345  0.11421866    -0.85800
O1542       O  0.97616305  0.16226690  0.11224737    -0.82800
C1543       C  0.94946718  0.16606063  0.10534148     0.97700
O1544       O  0.93918411  0.14700263  0.09367182    -0.82800
O1545       O  0.97284504  0.16120497  0.06325964    -0.85500
C1546       C  0.99630001  0.16346797  0.05299833     1.02200
O1547       O  0.51893706  0.14452736  0.05456814    -0.78200
O1548       O  0.54701879  0.16086601  0.08666648    -0.78400
C1549       C  0.55088342  0.16361120  0.10347255     1.02200
O1550       O  0.51926877  0.08016590  0.11276226    -0.85800
O1551       O  0.95750723  0.09776844  0.11430334    -0.82800
C1552       C  0.94525052  0.07821830  0.10361822     0.97700
O1553       O  0.94906135  0.08111484  0.08682203    -0.82800
O1554       O  0.97795154  0.09574882  0.05488770    -0.85500
C1555       C  0.00051283  0.07657447  0.05400192     1.02200
O1556       O  0.52383515  0.07958485  0.06427588    -0.78300
O1557       O  0.55692011  0.09526771  0.09454796    -0.78400
C1558       C  0.54635991  0.07651773  0.10634767     1.02200
Cr1559     Cr  0.99771673  0.12118165  0.11156255     1.93700
Cr1560     Cr  0.96237265  0.12122550  0.07560195     1.93200
Cr1561     Cr  0.53400254  0.12019355  0.07591198     1.39100
O1562       O  0.99801724  0.12092005  0.08766655    -1.23500
O1563       O  0.78872210  0.39252101  0.14356285    -0.85800
O1564       O  0.77119773  0.33059639  0.14216368    -0.82800
C1565       C  0.79067189  0.31789675  0.15278700     0.97700
O1566       O  0.78840136  0.32193076  0.16960131    -0.82800
O1567       O  0.77277402  0.34946690  0.20209010    -0.85500
C1568       C  0.79191197  0.37207017  0.20317474     1.02200
O1569       O  0.78940108  0.39526734  0.19268797    -0.78200
O1570       O  0.77539762  0.42952490  0.16273526    -0.78400
C1571       C  0.79354153  0.41895466  0.15068515     1.02200
O1572       O  0.72457260  0.41167323  0.14238615    -0.85800
O1573       O  0.70680167  0.34936950  0.14430542    -0.82800
C1574       C  0.70360211  0.32213434  0.15080644     0.97700
O1575       O  0.72319877  0.31157986  0.16209827    -0.82800
O1576       O  0.70789601  0.34486035  0.19221234    -0.85500
C1577       C  0.70447392  0.36853321  0.20220787     1.02200
O1578       O  0.72403282  0.39085688  0.20169097    -0.78300
O1579       O  0.70968846  0.42057381  0.17017836    -0.78400
C1580       C  0.70628551  0.42481221  0.15347222     1.02200
Cr1581     Cr  0.74783628  0.37103244  0.14490219     1.93700
Cr1582     Cr  0.74817763  0.33463551  0.18062495     1.93200
Cr1583     Cr  0.74954599  0.40643562  0.18090522     1.39100
O1584       O  0.74854933  0.37077597  0.16880987    -1.23500
C1585       C  0.57143353  0.18824378  0.11096484    -0.01700
C1586       C  0.58147641  0.18586801  0.12890495    -0.09700
C1587       C  0.60115979  0.20839703  0.13636639    -0.18600
C1588       C  0.61151441  0.23439419  0.12606368     0.03800
C1589       C  0.60045790  0.23734960  0.10803515     0.18000
C1590       C  0.58082591  0.21419447  0.10060043    -0.20000
C1591       C  0.60922999  0.26327819  0.09751594    -0.21200
C1592       C  0.62939465  0.28600159  0.10437736    -0.19800
C1593       C  0.64169255  0.28305716  0.12181445     0.19400
C1594       C  0.63279553  0.25726621  0.13294428     0.01500
C1595       C  0.64633823  0.25491638  0.15030221    -0.14500
C1596       C  0.66861167  0.27654289  0.15604503    -0.12200
C1597       C  0.67784257  0.30149242  0.14492245     0.01100
C1598       C  0.66367568  0.30519365  0.12799123    -0.24400
H1599       H  0.57437364  0.16619145  0.13728116     0.09100
H1600       H  0.60771489  0.20469611  0.15020134     0.12600
H1601       H  0.57275179  0.21645961  0.08679458     0.11400
H1602       H  0.60063465  0.26588430  0.08383520     0.12600
H1603       H  0.63597791  0.30562589  0.09583315     0.11600
H1604       H  0.64099665  0.23626499  0.15959670     0.08700
H1605       H  0.67899387  0.27343206  0.16927996     0.11900
H1606       H  0.67079843  0.32443694  0.11930425     0.13800
C1607       C  0.81526391  0.29740857  0.14526773    -0.01700
C1608       C  0.81360103  0.28811155  0.12717863    -0.09700
C1609       C  0.83625502  0.26854472  0.11976647    -0.18600
C1610       C  0.86163348  0.25757477  0.13025387     0.03800
C1611       C  0.86350202  0.26738671  0.14856483     0.18000
C1612       C  0.84036909  0.28706081  0.15589629    -0.20000
C1613       C  0.88826291  0.25724818  0.15948368    -0.21200
C1614       C  0.91089565  0.23694041  0.15272305    -0.19800
C1615       C  0.90925504  0.22623196  0.13489799     0.19400
C1616       C  0.88481377  0.23672785  0.12332561     0.01500
C1617       C  0.88421673  0.22529297  0.10542652    -0.14500
C1618       C  0.90583875  0.20307688  0.09962073    -0.12200
C1619       C  0.92911121  0.19195171  0.11125619     0.01100
C1620       C  0.93136948  0.20431291  0.12870801    -0.24400
H1621       H  0.79443418  0.29574369  0.11866155     0.09100
H1622       H  0.83300006  0.26235418  0.10581130     0.12600
H1623       H  0.84193660  0.29432228  0.16989069     0.11400
H1624       H  0.88993361  0.26478028  0.17341843     0.12600
H1625       H  0.92952346  0.22914083  0.16159139     0.11600
H1626       H  0.86700148  0.23245053  0.09564215     0.08700
H1627       H  0.90408091  0.19421762  0.08595226     0.11900
H1628       H  0.94945087  0.19578624  0.13774605     0.13800
C1629       C  0.92585130  0.05248663  0.11101592    -0.01700
C1630       C  0.92316615  0.04853777  0.12974011    -0.09700
C1631       C  0.90422934  0.02501959  0.13698435    -0.18600
C1632       C  0.88707629  0.00463493  0.12565604     0.03800
C1633       C  0.89093070  0.00786428  0.10666885     0.18000
C1634       C  0.91006811  0.03168996  0.09955563    -0.20000
C1635       C  0.87533250  0.48757251  0.09487062    -0.21200
C1636       C  0.85533546  0.46451994  0.10150014    -0.19800
C1637       C  0.84992237  0.46168721  0.12005803     0.19400
C1638       C  0.86576313  0.48164638  0.13244521     0.01500
C1639       C  0.85853590  0.47861024  0.15101091    -0.14500
C1640       C  0.83554121  0.45769953  0.15686322    -0.12200
C1641       C  0.81975285  0.43857072  0.14454146     0.01100
C1642       C  0.82771370  0.43987753  0.12624998    -0.24400
H1643       H  0.93564759  0.06385017  0.13892348     0.09100
H1644       H  0.90351507  0.02349428  0.15149485     0.12600
H1645       H  0.91236017  0.03424406  0.08504599     0.11400
H1646       H  0.87839214  0.48973508  0.08039434     0.12600
H1647       H  0.84332155  0.44938686  0.09200487     0.11600
H1648       H  0.86933796  0.99281333  0.16128733     0.08700
H1649       H  0.82979381  0.45670188  0.17110751     0.11900
H1650       H  0.81529116  0.42515882  0.11669697     0.13800
C1651       C  0.68130909  0.44579710  0.14679291    -0.01700
C1652       C  0.65765357  0.45617727  0.15843127    -0.09700
C1653       C  0.63400814  0.47602628  0.15221602    -0.18600
C1654       C  0.63342525  0.48640101  0.13406801     0.03800
C1655       C  0.65767417  0.47597040  0.12235724     0.18000
C1656       C  0.68105036  0.45567355  0.12873655    -0.20000
C1657       C  0.65872068  0.48615279  0.10439568    -0.21200
C1658       C  0.63652348  0.00709872  0.09786347    -0.19800
C1659       C  0.61249525  0.01795499  0.10906705     0.19400
C1660       C  0.61010319  0.00724509  0.12721210     0.01500
C1661       C  0.58460693  0.01810453  0.13770347    -0.14500
C1662       C  0.56325188  0.03972025  0.13068778    -0.12200
C1663       C  0.56678776  0.05132201  0.11313442     0.01100
C1664       C  0.59109155  0.03992698  0.10228786    -0.24400
H1665       H  0.65732273  0.44884314  0.17244532     0.09100
H1666       H  0.61681154  0.98314662  0.16202942     0.12600
H1667       H  0.69939583  0.44793996  0.11964470     0.11400
H1668       H  0.67713116  0.47824662  0.09540962     0.12600
H1669       H  0.63826685  0.01500467  0.08397596     0.11600
H1670       H  0.58058226  0.01051139  0.15139122     0.08700
H1671       H  0.54446759  0.04814112  0.13923763     0.11900
H1672       H  0.59354808  0.04846787  0.08854650     0.13800
C1673       C  0.67818022  0.36994655  0.21507794    -0.01700
C1674       C  0.65870286  0.34388979  0.21773695    -0.09700
C1675       C  0.63498526  0.34464710  0.23066368    -0.18600
C1676       C  0.63008806  0.37165805  0.24143128     0.03800
C1677       C  0.64914255  0.39844380  0.23812554     0.18000
C1678       C  0.67276286  0.39738737  0.22502925    -0.20000
C1679       C  0.64504148  0.42593468  0.24818614    -0.21200
C1680       C  0.62300938  0.42712149  0.26195120    -0.19800
C1681       C  0.60454562  0.40085978  0.26595056     0.19400
C1682       C  0.60748313  0.37287771  0.25558505     0.01500
C1683       C  0.58809797  0.34713535  0.26009018    -0.14500
C1684       C  0.56712595  0.34895165  0.27442514    -0.12200
C1685       C  0.56461628  0.37638925  0.28476943     0.01100
C1686       C  0.58330418  0.40234704  0.28038780    -0.24400
H1687       H  0.66213795  0.32255329  0.21002543     0.09100
H1688       H  0.62125517  0.32354507  0.23203794     0.12600
H1689       H  0.68737244  0.41789951  0.22283504     0.11400
H1690       H  0.65934911  0.44650722  0.24559270     0.12600
H1691       H  0.62069898  0.44859671  0.26968662     0.11600
H1692       H  0.58862930  0.32516354  0.25290786     0.08700
H1693       H  0.55279849  0.32857548  0.27741931     0.11900
H1694       H  0.58131674  0.42378318  0.28820074     0.13800
C1695       C  0.81669604  0.37189551  0.21713676    -0.01700
C1696       C  0.83872010  0.39624093  0.21766672    -0.09700
C1697       C  0.86183176  0.39693550  0.23090783    -0.18600
C1698       C  0.86373528  0.37316024  0.24424722     0.03800
C1699       C  0.84152499  0.34830441  0.24361323     0.18000
C1700       C  0.81834103  0.34786287  0.23013366    -0.20000
C1701       C  0.84252639  0.32413544  0.25647848    -0.21200
C1702       C  0.86509945  0.32415716  0.27002979    -0.19800
C1703       C  0.88718814  0.34840288  0.27110277     0.19400
C1704       C  0.88679384  0.37324784  0.25819909     0.01500
C1705       C  0.90942921  0.39724247  0.25986566    -0.14500
C1706       C  0.93138539  0.39667491  0.27370417    -0.12200
C1707       C  0.93185254  0.37223865  0.28643596     0.01100
C1708       C  0.90965651  0.34805000  0.28503012    -0.24400
H1709       H  0.83812048  0.41503888  0.20777771     0.09100
H1710       H  0.87776901  0.41651312  0.23028433     0.12600
H1711       H  0.80141137  0.32887372  0.22986744     0.11400
H1712       H  0.82568986  0.30508443  0.25607586     0.12600
H1713       H  0.86520552  0.30512201  0.27978196     0.11600
H1714       H  0.91087656  0.41692353  0.25074170     0.08700
H1715       H  0.94824966  0.41566296  0.27434328     0.11900
H1716       H  0.90979971  0.32899003  0.29477513     0.13800
C1717       C  0.68294903  0.19994769  0.39308158    -0.01700
C1718       C  0.68659224  0.21086413  0.37536126    -0.09700
C1719       C  0.66588902  0.23296616  0.36813377    -0.18600
C1720       C  0.64095197  0.24518095  0.37856198     0.03800
C1721       C  0.63853713  0.23534036  0.39687548     0.18000
C1722       C  0.65913061  0.21262954  0.40384455    -0.20000
C1723       C  0.61534221  0.24792398  0.40807483    -0.21200
C1724       C  0.59396194  0.26961611  0.40137710    -0.19800
C1725       C  0.59471562  0.27860465  0.38319400     0.19400
C1726       C  0.61815857  0.26649920  0.37147977     0.01500
C1727       C  0.61710714  0.27549897  0.35308667    -0.14500
C1728       C  0.59349028  0.29521876  0.34659140    -0.12200
C1729       C  0.57039026  0.30697922  0.35818588     0.01100
C1730       C  0.57155189  0.29898803  0.37655664    -0.24400
H1731       H  0.70499550  0.20156168  0.36683981     0.09100
H1732       H  0.67001418  0.23998624  0.35435166     0.12600
H1733       H  0.65654087  0.20469183  0.41769238     0.11400
H1734       H  0.61362135  0.24081734  0.42210270     0.12600
H1735       H  0.57619317  0.27881441  0.41038376     0.11600
H1736       H  0.63370073  0.26705213  0.34327240     0.08700
H1737       H  0.59322067  0.30110257  0.33235623     0.11900
H1738       H  0.55375699  0.30785129  0.38566699     0.13800
C1739       C  0.82413424  0.19590800  0.39510103    -0.01700
C1740       C  0.82925472  0.19796672  0.37644641    -0.09700
C1741       C  0.84897764  0.22080828  0.36921818    -0.18600
C1742       C  0.86455309  0.24255883  0.38046255     0.03800
C1743       C  0.85843604  0.24124189  0.39932569     0.18000
C1744       C  0.83838287  0.21804826  0.40645532    -0.20000
C1745       C  0.87278905  0.26274763  0.41097041    -0.21200
C1746       C  0.89366212  0.28511809  0.40434070    -0.19800
C1747       C  0.90090244  0.28639480  0.38591501     0.19400
C1748       C  0.88634506  0.26516560  0.37369326     0.01500
C1749       C  0.89491917  0.26688774  0.35527940    -0.14500
C1750       C  0.91756170  0.28807177  0.34937527    -0.12200
C1751       C  0.93199044  0.30872251  0.36143892     0.01100
C1752       C  0.92318874  0.30826431  0.37965679    -0.24400
H1753       H  0.81821191  0.18154255  0.36728629     0.09100
H1754       H  0.85161206  0.22059896  0.35475960     0.12600
H1755       H  0.83422037  0.21699918  0.42088658     0.11400
H1756       H  0.86809027  0.26205148  0.42534702     0.12600
H1757       H  0.90462932  0.30119386  0.41374335     0.11600
H1758       H  0.88514802  0.25175072  0.34510475     0.08700
H1759       H  0.92394692  0.28824758  0.33521062     0.11900
H1760       H  0.93457817  0.32406525  0.38906174     0.13800
C1761       C  0.93312413  0.45368255  0.35587829    -0.01700
C1762       C  0.90578548  0.45920894  0.34595667    -0.09700
C1763       C  0.88242892  0.47901886  0.35267907    -0.18600
C1764       C  0.88602950  0.49432009  0.36949981     0.03800
C1765       C  0.91443752  0.48946192  0.37911701     0.18000
C1766       C  0.93732341  0.46903310  0.37239081    -0.20000
C1767       C  0.92001239  0.00514142  0.39536756    -0.21200
C1768       C  0.89801204  0.02582924  0.40228719    -0.19800
C1769       C  0.86964597  0.03081468  0.39331366     0.19400
C1770       C  0.86285493  0.01470946  0.37699089     0.01500
C1771       C  0.83320042  0.01978515  0.36895956    -0.14500
C1772       C  0.81192797  0.04119168  0.37637180    -0.12200
C1773       C  0.81955029  0.05813995  0.39195077     0.01100
C1774       C  0.84819094  0.05223399  0.40052649    -0.24400
H1775       H  0.90221338  0.44776890  0.33306944     0.09100
H1776       H  0.86202505  0.48217162  0.34432465     0.12600
H1777       H  0.95874386  0.46537259  0.37996617     0.11400
H1778       H  0.94170975  0.00165141  0.40268217     0.12600
H1779       H  0.90320811  0.03798768  0.41477742     0.11600
H1780       H  0.82582018  0.50764145  0.35694101     0.08700
H1781       H  0.78974816  0.04499890  0.36963761     0.11900
H1782       H  0.85412342  0.06474472  0.41279901     0.13800
C1783       C  0.56749050  0.45233279  0.35803890    -0.01700
C1784       C  0.57615456  0.47807768  0.34733066    -0.09700
C1785       C  0.59719178  0.50051339  0.35371719    -0.18600
C1786       C  0.61004897  0.49813239  0.37126053     0.03800
C1787       C  0.60107511  0.47199402  0.38210023     0.18000
C1788       C  0.58033612  0.44924592  0.37534778    -0.20000
C1789       C  0.61246705  0.46893671  0.39972397    -0.21200
C1790       C  0.63255681  0.49136625  0.40689398    -0.19800
C1791       C  0.64211142  0.01718428  0.39653510     0.19400
C1792       C  0.63121555  0.02083608  0.37850288     0.01500
C1793       C  0.64212058  0.04697801  0.36850056    -0.14500
C1794       C  0.66292853  0.06844639  0.37607670    -0.12200
C1795       C  0.67340822  0.06488840  0.39388941     0.01100
C1796       C  0.66273447  0.03927893  0.40408659    -0.24400
H1797       H  0.56651119  0.48098957  0.33390547     0.09100
H1798       H  0.60248499  0.01964573  0.34467348     0.12600
H1799       H  0.57345262  0.42958216  0.38380718     0.11400
H1800       H  0.60560430  0.44915295  0.40808237     0.12600
H1801       H  0.64082242  0.48839726  0.42062275     0.11600
H1802       H  0.63530516  0.05140388  0.35473534     0.08700
H1803       H  0.67074368  0.08809655  0.36790234     0.11900
H1804       H  0.67088611  0.03623393  0.41784047     0.13800
C1805       C  0.75112570  0.05744524  0.46572104    -0.01700
C1806       C  0.72290312  0.05133569  0.47476207    -0.09700
C1807       C  0.72121428  0.02893643  0.48852572    -0.18600
C1808       C  0.74795375  0.01181286  0.49393976     0.03800
C1809       C  0.77661761  0.01801620  0.48476869     0.18000
C1810       C  0.77788396  0.04037217  0.47069929    -0.20000
C1811       C  0.80395376  0.50221448  0.48988915    -0.21200
C1812       C  0.80352195  0.48053157  0.50398040    -0.19800
C1813       C  0.77566068  0.47375233  0.51318355     0.19400
C1814       C  0.74738134  0.48907792  0.50823921     0.01500
C1815       C  0.71983124  0.48092202  0.51784464    -0.14500
C1816       C  0.72046195  0.45875753  0.53183621    -0.12200
C1817       C  0.74841765  0.44380918  0.53669795     0.01100
C1818       C  0.77593706  0.45153600  0.52726782    -0.24400
H1819       H  0.70182563  0.06409588  0.47124027     0.09100
H1820       H  0.69867494  0.02591927  0.49482076     0.12600
H1821       H  0.79992001  0.04500077  0.46392051     0.11400
H1822       H  0.82591226  0.50684435  0.48303960     0.12600
H1823       H  0.82516289  0.46888302  0.50767153     0.11600
H1824       H  0.69734001  0.99105536  0.51479661     0.08700
H1825       H  0.69881954  0.45299077  0.53871617     0.11900
H1826       H  0.79776947  0.44012958  0.53085692     0.13800
C1827       C  0.75742327  0.30787105  0.53710080    -0.01700
C1828       C  0.78497327  0.29187195  0.53260389    -0.09700
C1829       C  0.78511737  0.26939394  0.51887899    -0.18600
C1830       C  0.75747199  0.26207504  0.50921582     0.03800
C1831       C  0.72947372  0.27793650  0.51412908     0.18000
C1832       C  0.72973303  0.30056377  0.52785683    -0.20000
C1833       C  0.70131327  0.27123143  0.50529747    -0.21200
C1834       C  0.70029082  0.24908376  0.49157213    -0.19800
C1835       C  0.72744268  0.23324514  0.48626067     0.19400
C1836       C  0.75648757  0.23956197  0.49494139     0.01500
C1837       C  0.78323042  0.22307957  0.48891808    -0.14500
C1838       C  0.78104103  0.20083960  0.47518434    -0.12200
C1839       C  0.75229583  0.19439343  0.46686733     0.01100
C1840       C  0.72563842  0.21095294  0.47234779    -0.24400
H1841       H  0.80666179  0.29701329  0.53956717     0.09100
H1842       H  0.80723673  0.25819449  0.51618581     0.12600
H1843       H  0.70817258  0.31257102  0.53133543     0.11400
H1844       H  0.67988191  0.28319584  0.50904824     0.12600
H1845       H  0.67809389  0.24435904  0.48503503     0.11600
H1846       H  0.80618502  0.22675734  0.49453644     0.08700
H1847       H  0.80209158  0.18860731  0.47104895     0.11900
H1848       H  0.70330013  0.20612820  0.46598029     0.13800
C1849       C  0.57520626  0.19476037  0.64642121    -0.01700
C1850       C  0.59563111  0.21066974  0.65798576    -0.09700
C1851       C  0.61847118  0.23088361  0.65111214    -0.18600
C1852       C  0.62158661  0.23601222  0.63229810     0.03800
C1853       C  0.60170408  0.21878689  0.62056582     0.18000
C1854       C  0.57885212  0.19845553  0.62767620    -0.20000
C1855       C  0.60431173  0.22244211  0.60182271    -0.21200
C1856       C  0.62564676  0.24364040  0.59446020    -0.19800
C1857       C  0.64473639  0.26190013  0.60566025     0.19400
C1858       C  0.64320515  0.25806425  0.62474098     0.01500
C1859       C  0.66276451  0.27713251  0.63547724    -0.14500
C1860       C  0.68224524  0.29961589  0.62769308    -0.12200
C1861       C  0.68325023  0.30397271  0.60893757     0.01100
C1862       C  0.66481627  0.28455154  0.59793915    -0.24400
H1863       H  0.59363290  0.20794830  0.67248488     0.09100
H1864       H  0.63305522  0.24236753  0.66093986     0.12600
H1865       H  0.56345896  0.18593496  0.61854390     0.11400
H1866       H  0.58941707  0.20913706  0.59279078     0.12600
H1867       H  0.62676796  0.24622639  0.57991436     0.11600
H1868       H  0.66320787  0.27575656  0.64998684     0.08700
H1869       H  0.69637984  0.31401490  0.63656094     0.11900
H1870       H  0.66544899  0.28759814  0.58340723     0.13800
C1871       C  0.82943633  0.31032975  0.61016233    -0.01700
C1872       C  0.86150247  0.31661712  0.60835046    -0.09700
C1873       C  0.88394724  0.29550909  0.61471659    -0.18600
C1874       C  0.87511443  0.26687596  0.62300344     0.03800
C1875       C  0.84256396  0.26019722  0.62450413     0.18000
C1876       C  0.82011401  0.28205650  0.61834828    -0.20000
C1877       C  0.83265294  0.23165173  0.63203980    -0.21200
C1878       C  0.85432623  0.20951782  0.63805107    -0.19800
C1879       C  0.88650726  0.21558090  0.63703941     0.19400
C1880       C  0.89737676  0.24458296  0.62973749     0.01500
C1881       C  0.93005081  0.25015756  0.62974056    -0.14500
C1882       C  0.95090050  0.22797172  0.63671719    -0.12200
C1883       C  0.94013081  0.19923567  0.64348567     0.01100
C1884       C  0.90793308  0.19298198  0.64349565    -0.24400
H1885       H  0.86939776  0.33826726  0.60209782     0.09100
H1886       H  0.90803198  0.30218050  0.61273461     0.12600
H1887       H  0.79537254  0.27680692  0.61964214     0.11400
H1888       H  0.80792504  0.22628851  0.63317452     0.12600
H1889       H  0.84582710  0.18759199  0.64370158     0.11600
H1890       H  0.94024975  0.27165795  0.62476566     0.08700
H1891       H  0.97573761  0.23318581  0.63668799     0.11900
H1892       H  0.89954334  0.17088445  0.64900397     0.13800
C1893       C  0.82451001  0.44577397  0.60879960    -0.01700
C1894       C  0.82331384  0.45193421  0.62736275    -0.09700
C1895       C  0.84302453  0.47413214  0.63517374    -0.18600
C1896       C  0.86501367  0.49086387  0.62463456     0.03800
C1897       C  0.86568252  0.48505186  0.60571479     0.18000
C1898       C  0.84535895  0.46286625  0.59797924    -0.20000
C1899       C  0.88707582  0.50093338  0.59467749    -0.21200
C1900       C  0.90828293  0.52205541  0.60205641    -0.19800
C1901       C  0.90859429  0.02782726  0.62064841     0.19400
C1902       C  0.88676135  0.01263074  0.63221986     0.01500
C1903       C  0.88809575  0.01947713  0.65090398    -0.14500
C1904       C  0.91076711  0.03977529  0.65781401    -0.12200
C1905       C  0.93271572  0.05401561  0.64638403     0.01100
C1906       C  0.93109486  0.04832181  0.62776879    -0.24400
H1907       H  0.80716049  0.43927840  0.63601045     0.09100
H1908       H  0.84072027  0.97725312  0.64953526     0.12600
H1909       H  0.84646043  0.45822962  0.58360321     0.11400
H1910       H  0.88768747  0.49668722  0.58025936     0.12600
H1911       H  0.92483127  0.53368433  0.59317363     0.11600
H1912       H  0.87224167  0.00928200  0.66059337     0.08700
H1913       H  0.91134481  0.04397531  0.67222952     0.11900
H1914       H  0.94783212  0.05938925  0.61875890     0.13800
C1915       C  0.56961659  0.05061675  0.64583870    -0.01700
C1916       C  0.59973697  0.06124575  0.64148226    -0.09700
C1917       C  0.62281643  0.04020938  0.63557513    -0.18600
C1918       C  0.61611786  0.00783985  0.63330759     0.03800
C1919       C  0.58517727  0.99747174  0.63722875     0.18000
C1920       C  0.56265935  0.01861487  0.64386791    -0.20000
C1921       C  0.57663333  0.46618159  0.63412814    -0.21200
C1922       C  0.59791181  0.44505486  0.62677265    -0.19800
C1923       C  0.62868030  0.45431062  0.62302053     0.19400
C1924       C  0.63860573  0.48553355  0.62681334     0.01500
C1925       C  0.67060361  0.49286046  0.62404406    -0.14500
C1926       C  0.69150808  0.47037548  0.61727326    -0.12200
C1927       C  0.68108403  0.44025413  0.61260157     0.01100
C1928       C  0.64964178  0.43239021  0.61556461    -0.24400
H1929       H  0.60557264  0.08591297  0.64286043     0.09100
H1930       H  0.64542782  0.05006084  0.63241740     0.12600
H1931       H  0.53923671  0.01032094  0.64694570     0.11400
H1932       H  0.55306540  0.45815744  0.63701179     0.12600
H1933       H  0.59030125  0.42119314  0.62413664     0.11600
H1934       H  0.68020753  0.01560791  0.62726372     0.08700
H1935       H  0.71583022  0.47676829  0.61532228     0.11900
H1936       H  0.64162112  0.40884252  0.61239465     0.13800
C1937       C  0.68368181  0.11625183  0.78899915    -0.01700
C1938       C  0.66665856  0.08871532  0.78560677    -0.09700
C1939       C  0.64339107  0.08806961  0.77234175    -0.18600
C1940       C  0.63625466  0.11517083  0.76202368     0.03800
C1941       C  0.65249072  0.14343028  0.76616524     0.18000
C1942       C  0.67608128  0.14363642  0.77936158    -0.20000
C1943       C  0.64522001  0.17134464  0.75705459    -0.21200
C1944       C  0.62226652  0.17180630  0.74377793    -0.19800
C1945       C  0.60663420  0.14418716  0.73891672     0.19400
C1946       C  0.61366432  0.11533291  0.74777179     0.01500
C1947       C  0.59832986  0.08784931  0.74164514    -0.14500
C1948       C  0.57676122  0.08911298  0.72746744    -0.12200
C1949       C  0.56928590  0.11777727  0.71920105     0.01100
C1950       C  0.58424742  0.14522962  0.72505375    -0.24400
H1951       H  0.67160354  0.06736863  0.79307739     0.09100
H1952       H  0.63128796  0.06606733  0.77054323     0.12600
H1953       H  0.68858981  0.16528720  0.78211324     0.11400
H1954       H  0.65732440  0.19302445  0.76025499     0.12600
H1955       H  0.61709511  0.19384285  0.73703512     0.11600
H1956       H  0.60290587  0.06495931  0.74731992     0.08700
H1957       H  0.56545550  0.06760281  0.72315665     0.11900
H1958       H  0.57885433  0.16744731  0.71854666     0.13800
C1959       C  0.93333310  0.13084902  0.71722994    -0.01700
C1960       C  0.92186094  0.15934483  0.72396618    -0.09700
C1961       C  0.89928784  0.15972340  0.73767896    -0.18600
C1962       C  0.88717023  0.13141228  0.74498396     0.03800
C1963       C  0.89762428  0.10264115  0.73734760     0.18000
C1964       C  0.92069730  0.10260847  0.72382305    -0.20000
C1965       C  0.88516813  0.07400981  0.74333510    -0.21200
C1966       C  0.86265949  0.07325928  0.75689780    -0.19800
C1967       C  0.85263001  0.10105633  0.76516094     0.19400
C1968       C  0.86504919  0.13052792  0.75951446     0.01500
C1969       C  0.85523297  0.15770116  0.76891683    -0.14500
C1970       C  0.83354718  0.15573692  0.78302480    -0.12200
C1971       C  0.82055949  0.12678299  0.78814469     0.01100
C1972       C  0.83035833  0.09950127  0.77914449    -0.24400
H1973       H  0.93094405  0.18147413  0.71893705     0.09100
H1974       H  0.89170259  0.18252638  0.74223893     0.12600
H1975       H  0.92889519  0.08041477  0.71840628     0.11400
H1976       H  0.89283411  0.05201010  0.73744626     0.12600
H1977       H  0.85337391  0.05070552  0.76114565     0.11600
H1978       H  0.86418791  0.18078606  0.76583386     0.08700
H1979       H  0.82654527  0.17717145  0.78978136     0.11900
H1980       H  0.82080530  0.07689813  0.78312364     0.13800
C1981       C  0.00068060  0.43876533  0.96982122    -0.01700
C1982       C  0.97602204  0.46034040  0.97083194    -0.09700
C1983       C  0.97491738  0.48261197  0.98453224    -0.18600
C1984       C  0.99859220  0.48406562  0.99782450     0.03800
C1985       C  0.52407852  0.46272763  0.99648956     0.18000
C1986       C  0.52481371  0.44024135  0.98263468    -0.20000
C1987       C  0.54867571  0.46404810  0.00895290    -0.21200
C1988       C  0.54867552  0.48642286  0.02262653    -0.19800
C1989       C  0.52376505  0.00757611  0.02438210     0.19400
C1990       C  0.99806518  0.00624008  0.01221311     0.01500
C1991       C  0.97282758  0.02709549  0.01500515    -0.14500
C1992       C  0.97370497  0.04927380  0.02873719    -0.12200
C1993       C  0.99961708  0.05151668  0.04023645     0.01100
C1994       C  0.52441761  0.03022230  0.03817497    -0.24400
H1995       H  0.95725874  0.45998285  0.96100221     0.09100
H1996       H  0.95532109  0.99851319  0.98418427     0.12600
H1997       H  0.54416046  0.42379707  0.98189250     0.11400
H1998       H  0.56821531  0.44788538  0.00800252     0.12600
H1999       H  0.56825071  0.48713322  0.03191788     0.11600
H2000       H  0.95193776  0.02687934  0.00688230     0.08700
H2001       H  0.95393867  0.06501506  0.03019900     0.11900
H2002       H  0.54438098  0.03144112  0.04717969     0.13800
C2003       C  0.00168947  0.30208705  0.96882093    -0.01700
C2004       C  0.52559182  0.27966047  0.96972943    -0.09700
C2005       C  0.52530804  0.25642072  0.98301027    -0.18600
C2006       C  0.50097814  0.25490834  0.99595261     0.03800
C2007       C  0.97619267  0.27704300  0.99459676     0.18000
C2008       C  0.97684983  0.30040367  0.98119704    -0.20000
C2009       C  0.95093700  0.27577398  0.00663676    -0.21200
C2010       C  0.94978320  0.25293181  0.02007905    -0.19800
C2011       C  0.97419933  0.23127169  0.02205296     0.19400
C2012       C  0.50032253  0.23219586  0.01013472     0.01500
C2013       C  0.52493780  0.21066768  0.01310425    -0.14500
C2014       C  0.52341424  0.18879589  0.02705182    -0.12200
C2015       C  0.99739000  0.18744630  0.03854966     0.01100
C2016       C  0.97281880  0.20883006  0.03599080    -0.24400
H2017       H  0.54478787  0.28011382  0.96016691     0.09100
H2018       H  0.54440722  0.23992001  0.98267489     0.12600
H2019       H  0.95800983  0.31743970  0.98050089     0.11400
H2020       H  0.93187644  0.29249482  0.00560706     0.12600
H2021       H  0.92983928  0.25244834  0.02912957     0.11600
H2022       H  0.54593169  0.21030542  0.00505631     0.08700
H2023       H  0.54288674  0.17276422  0.02878451     0.11900
H2024       H  0.95266740  0.20814170  0.04489350     0.13800
C2025       C  0.57070818  0.30167039  0.89498821    -0.01700
C2026       C  0.56519270  0.28876853  0.87789678    -0.09700
C2027       C  0.58622000  0.26728995  0.87031545    -0.18600
C2028       C  0.61345884  0.25778242  0.87973460     0.03800
C2029       C  0.61825326  0.27014536  0.89734801     0.18000
C2030       C  0.59714556  0.29193391  0.90468776    -0.20000
C2031       C  0.64426548  0.26095454  0.90752545    -0.21200
C2032       C  0.66585843  0.23982449  0.90057115    -0.19800
C2033       C  0.66222442  0.22767476  0.88316681     0.19400
C2034       C  0.63614129  0.23657380  0.87238839     0.01500
C2035       C  0.63426950  0.22417087  0.85468957    -0.12900
C2036       C  0.65729249  0.20379031  0.84807066    -0.12200
C2037       C  0.68264693  0.19480111  0.85890277     0.01100
C2038       C  0.68482166  0.20682970  0.87645485    -0.24400
H2039       H  0.54490323  0.29588713  0.87013790     0.09100
H2040       H  0.58054346  0.25860122  0.85706297     0.12600
H2041       H  0.60143591  0.30149391  0.91802170     0.11400
H2042       H  0.64795968  0.27019767  0.92098182     0.12600
H2043       H  0.68574548  0.23316879  0.90881745     0.11600
H2044       H  0.61551279  0.23005085  0.84556976     0.08700
H2045       H  0.65512819  0.19488643  0.83443850     0.11900
H2046       H  0.70455386  0.20036781  0.88488757     0.13800
C2047       C  0.81638003  0.19468057  0.86377195    -0.01700
C2048       C  0.83106979  0.18827241  0.88029801    -0.09700
C2049       C  0.85185795  0.20986756  0.88798259    -0.18600
C2050       C  0.85893352  0.23863826  0.87923423     0.03800
C2051       C  0.84429062  0.24475669  0.86235190     0.18000
C2052       C  0.82312677  0.22306906  0.85493435    -0.20000
C2053       C  0.85099846  0.27241343  0.85284651    -0.21200
C2054       C  0.87245777  0.29396326  0.85954887    -0.19800
C2055       C  0.88732658  0.28871966  0.87610259     0.19400
C2056       C  0.88031310  0.26133828  0.88641431     0.01500
C2057       C  0.89499825  0.25801302  0.90343229    -0.14500
C2058       C  0.91623314  0.28053216  0.90968361    -0.12200
C2059       C  0.92389337  0.30684916  0.89914469     0.01100
C2060       C  0.90920080  0.31081368  0.88239276    -0.24400
H2061       H  0.82622793  0.16657415  0.88745791     0.09100
H2062       H  0.86225770  0.20321382  0.90067721     0.12600
H2063       H  0.81204814  0.22825924  0.84210205     0.11400
H2064       H  0.83986935  0.27722819  0.83998883     0.12600
H2065       H  0.87744720  0.31493056  0.85171546     0.11600
H2066       H  0.89039356  0.23840582  0.91228249     0.08700
H2067       H  0.92703196  0.27710474  0.92277010     0.11900
H2068       H  0.91447998  0.33143771  0.87430850     0.13800
C2069       C  0.82252716  0.05045957  0.86091322    -0.01700
C2070       C  0.84815444  0.04180952  0.85020923    -0.09700
C2071       C  0.87209078  0.02298885  0.85720886    -0.18600
C2072       C  0.87090535  0.01170153  0.87518410     0.03800
C2073       C  0.84483248  0.02054358  0.88598005     0.18000
C2074       C  0.82134440  0.04010148  0.87889910    -0.20000
C2075       C  0.84183232  0.00906314  0.90362296    -0.21200
C2076       C  0.86341959  0.98775933  0.91051780    -0.19800
C2077       C  0.88898546  0.47806510  0.90010865     0.19400
C2078       C  0.89386033  0.49088339  0.88258502     0.01500
C2079       C  0.92116468  0.48174982  0.87313400    -0.14500
C2080       C  0.94137059  0.45901464  0.88019691    -0.12200
C2081       C  0.93498680  0.44457611  0.89680919     0.01100
C2082       C  0.90928020  0.45496756  0.90694669    -0.24400
H2083       H  0.84970615  0.04955556  0.83629573     0.09100
H2084       H  0.89074777  0.51695612  0.84805628     0.12600
H2085       H  0.80155340  0.04648099  0.88730073     0.11400
H2086       H  0.82209431  0.01583021  0.91195402     0.12600
H2087       H  0.85985407  0.97847267  0.92400288     0.11600
H2088       H  0.92738383  0.49152827  0.86018666     0.08700
H2089       H  0.96151615  0.45194402  0.87230045     0.11900
H2090       H  0.90469461  0.44462018  0.92008135     0.13800
C2091       C  0.57772090  0.43709764  0.89867300    -0.01700
C2092       C  0.58018631  0.46661357  0.90686484    -0.09700
C2093       C  0.60024112  0.48957196  0.89977756    -0.18600
C2094       C  0.61907425  0.48331407  0.88444859     0.03800
C2095       C  0.61726770  0.45281072  0.87669608     0.18000
C2096       C  0.59630178  0.43039355  0.88359774    -0.20000
C2097       C  0.63663433  0.44467425  0.86220554    -0.21200
C2098       C  0.65805695  0.46612010  0.85527960    -0.19800
C2099       C  0.66005684  0.99653628  0.86233995     0.19400
C2100       C  0.64012156  0.00585759  0.87675690     0.01500
C2101       C  0.64213370  0.03732703  0.88276791    -0.14500
C2102       C  0.66400148  0.05814092  0.87534283    -0.12200
C2103       C  0.68464397  0.04838870  0.86172658     0.01100
C2104       C  0.68210589  0.01762377  0.85510807    -0.24400
H2105       H  0.56612398  0.47214361  0.91861489     0.09100
H2106       H  0.60089406  0.01176538  0.90675720     0.12600
H2107       H  0.59489273  0.40732442  0.87743538     0.11400
H2108       H  0.63551728  0.42137700  0.85634097     0.12600
H2109       H  0.67307455  0.45889739  0.84424303     0.11600
H2110       H  0.62705219  0.04657917  0.89314451     0.08700
H2111       H  0.66501524  0.08191897  0.88051244     0.11900
H2112       H  0.69755734  0.00988523  0.84438286     0.13800
O2113       O  0.98098869  0.91315495  0.89655517    -0.85800
O2114       O  0.54257062  0.89452356  0.89477634    -0.82800
C2115       C  0.55588894  0.91309809  0.90569295     0.97700
O2116       O  0.55142315  0.91040597  0.92244804    -0.82800
O2117       O  0.52282132  0.89487961  0.95457621    -0.85500
C2118       C  0.00061521  0.91446032  0.95561921     1.02200
O2119       O  0.97773424  0.91262261  0.94497964    -0.78200
O2120       O  0.94330677  0.89929241  0.91501124    -0.78400
C2121       C  0.95429730  0.91795445  0.90326475     1.02200
O2122       O  0.96048175  0.84861329  0.89475689    -0.85800
O2123       O  0.52272587  0.83017730  0.89619334    -0.82800
C2124       C  0.54995423  0.82635418  0.90242368     0.97700
O2125       O  0.56034218  0.84453882  0.91455716    -0.82800
O2126       O  0.52611791  0.82976477  0.94475565    -0.85500
C2127       C  0.00281165  0.82736880  0.95512656     1.02200
O2128       O  0.98074999  0.84716014  0.95427662    -0.78300
O2129       O  0.95132426  0.83311415  0.92248869    -0.78400
C2130       C  0.94660438  0.83048183  0.90578457     1.02200
Cr2131     Cr  0.00162258  0.87156094  0.89737611     1.93700
Cr2132     Cr  0.53751352  0.87001697  0.93317163     1.93200
Cr2133     Cr  0.96597423  0.87289228  0.93326286     1.39100
O2134       O  0.00169257  0.87136268  0.92126517    -1.23500
O2135       O  0.77663896  0.58172813  0.86383097    -0.85800
O2136       O  0.79077700  0.64498263  0.86236485    -0.82800
C2137       C  0.79338659  0.67237297  0.85595396     0.97700
O2138       O  0.77559031  0.68143440  0.84325918    -0.82800
O2139       O  0.79196486  0.64846267  0.81274285    -0.85500
C2140       C  0.79626898  0.62523039  0.80248904     1.02200
O2141       O  0.77914584  0.60102928  0.80393983    -0.78200
O2142       O  0.79442752  0.57368962  0.83651198    -0.78400
C2143       C  0.79679919  0.56981902  0.85334374     1.02200
O2144       O  0.71131085  0.59748708  0.86092277    -0.85800
O2145       O  0.72583174  0.66046934  0.86306321    -0.82800
C2146       C  0.70726513  0.67340568  0.85203022     0.97700
O2147       O  0.71049666  0.66897553  0.83532495    -0.82800
O2148       O  0.72704091  0.64037263  0.80360179    -0.85500
C2149       C  0.70932099  0.61657061  0.80250425     1.02200
O2150       O  0.71384883  0.59300381  0.81253777    -0.78300
O2151       O  0.72902809  0.56024635  0.84329888    -0.78400
C2152       C  0.70926830  0.56993727  0.85479757     1.02200
Cr2153     Cr  0.75119991  0.62107122  0.86064444     1.93700
Cr2154     Cr  0.75138563  0.65698403  0.82468212     1.93200
Cr2155     Cr  0.75403506  0.58478154  0.82498158     1.39100
O2156       O  0.75232359  0.62099796  0.83672495    -1.23500
O2157       O  0.79303778  0.90049128  0.61182595    -0.85800
O2158       O  0.73036459  0.91439090  0.61083326    -0.82800
C2159       C  0.70283003  0.91676789  0.60483638     0.97700
O2160       O  0.69323546  0.89839286  0.59258450    -0.82800
O2161       O  0.72594392  0.91544384  0.56152606    -0.85500
C2162       C  0.74900816  0.91932475  0.55104400     1.02200
O2163       O  0.77268560  0.90161285  0.55226834    -0.78200
O2164       O  0.80103626  0.91792978  0.58435797    -0.78400
C2165       C  0.80494072  0.92044422  0.60117825     1.02200
O2166       O  0.77885260  0.83458924  0.60961965    -0.85800
O2167       O  0.71587754  0.84854234  0.61209182    -0.82800
C2168       C  0.70281791  0.82961258  0.60134123     0.97700
O2169       O  0.70569511  0.83333089  0.58452169    -0.82800
O2170       O  0.73370047  0.85037012  0.55253034    -0.85500
C2171       C  0.75737070  0.83264013  0.55109428     1.02200
O2172       O  0.78094935  0.83664249  0.56109578    -0.78300
O2173       O  0.81482046  0.85311571  0.59140572    -0.78400
C2174       C  0.80628538  0.83346646  0.60328537     1.02200
Cr2175     Cr  0.75444740  0.87452779  0.60921706     1.93700
Cr2176     Cr  0.71749531  0.87452522  0.57371196     1.93200
Cr2177     Cr  0.78952692  0.87717518  0.57322401     1.39100
O2178       O  0.75377223  0.87542077  0.58535222    -1.23500
O2179       O  0.97811423  0.58558284  0.64323202    -0.85800
O2180       O  0.96417900  0.64889353  0.64497163    -0.82800
C2181       C  0.96279205  0.67657730  0.65102860     0.97700
O2182       O  0.98198627  0.68581299  0.66292838    -0.82800
O2183       O  0.96463631  0.65381418  0.69393340    -0.85500
C2184       C  0.95903185  0.63016368  0.70376504     1.02200
O2185       O  0.97578297  0.60572027  0.70260073    -0.78200
O2186       O  0.96020651  0.57827968  0.67053268    -0.78400
C2187       C  0.95795770  0.57394113  0.65378298     1.02200
O2188       O  0.54358807  0.60014814  0.64576142    -0.85800
O2189       O  0.52977708  0.66326677  0.64313155    -0.82800
C2190       C  0.54952232  0.67514420  0.65380644     0.97700
O2191       O  0.54652024  0.67126866  0.67061333    -0.82800
O2192       O  0.52937378  0.64411666  0.70290869    -0.85500
C2193       C  0.54543719  0.61930668  0.70477031     1.02200
O2194       O  0.54066950  0.59578940  0.69479790    -0.78300
O2195       O  0.52526315  0.56346242  0.66377984    -0.78400
C2196       C  0.54520426  0.57270355  0.65223641     1.02200
Cr2197     Cr  0.00385419  0.62447311  0.64613467     1.93700
Cr2198     Cr  0.00546501  0.66094207  0.68170671     1.93200
Cr2199     Cr  0.00071240  0.58864139  0.68196895     1.39100
O2200       O  0.00338330  0.62470211  0.67002970    -1.23500
O2201       O  0.72981340  0.66997688  0.39337776    -0.85800
O2202       O  0.79130646  0.65146462  0.39154670    -0.82800
C2203       C  0.80406614  0.67044941  0.40239261     0.97700
O2204       O  0.80035665  0.66698121  0.41917620    -0.82800
O2205       O  0.77251564  0.65050968  0.45125683    -0.85500
C2206       C  0.75032252  0.66990033  0.45281236     1.02200
O2207       O  0.72654783  0.66785390  0.44280847    -0.78200
O2208       O  0.69249016  0.65619322  0.41220517    -0.78400
C2209       C  0.70301840  0.67438988  0.40006708     1.02200
O2210       O  0.70990643  0.60634306  0.39099833    -0.85800
O2211       O  0.77164262  0.58703023  0.39269498    -0.82800
C2212       C  0.79878811  0.58307715  0.39900791     0.97700
O2213       O  0.80927118  0.60144402  0.41097903    -0.82800
O2214       O  0.77608136  0.58564458  0.44165414    -0.85500
C2215       C  0.75241226  0.58257832  0.45175305     1.02200
O2216       O  0.72970709  0.60161798  0.45050669    -0.78300
O2217       O  0.69998130  0.58954296  0.41835111    -0.78400
C2218       C  0.69570622  0.58783567  0.40154060     1.02200
Cr2219     Cr  0.75069828  0.62855697  0.39406599     1.93700
Cr2220     Cr  0.78677074  0.62625051  0.42980256     1.93200
Cr2221     Cr  0.71494584  0.62868589  0.43003622     1.39100
O2222       O  0.75072834  0.62774929  0.41801002    -1.23500
O2223       O  0.52627040  0.84039758  0.36202075    -0.85800
O2224       O  0.54108529  0.90310684  0.35865941    -0.82800
C2225       C  0.54370455  0.92988085  0.35148313     0.97700
O2226       O  0.52513676  0.93835615  0.33910933    -0.82800
O2227       O  0.53986065  0.90174697  0.30964966    -0.85500
C2228       C  0.54171807  0.87781998  0.29967384     1.02200
O2229       O  0.52306421  0.85507528  0.30185261    -0.78200
O2230       O  0.54037348  0.82921159  0.33431281    -0.78400
C2231       C  0.54461054  0.82678490  0.35111314     1.02200
O2232       O  0.96097699  0.85654413  0.36101648    -0.85800
O2233       O  0.97621310  0.91959304  0.36036159    -0.82800
C2234       C  0.95742979  0.93198256  0.34920903     0.97700
O2235       O  0.95998025  0.92660682  0.33254805    -0.82800
O2236       O  0.97492437  0.89534227  0.30135063    -0.85500
C2237       C  0.95601197  0.87249051  0.30078804     1.02200
O2238       O  0.95865280  0.85004505  0.31186872    -0.78300
O2239       O  0.97566493  0.81856640  0.34291710    -0.78400
C2240       C  0.95734879  0.82920024  0.35482943     1.02200
Cr2241     Cr  0.00103938  0.87973467  0.35863563     1.93700
Cr2242     Cr  0.99999747  0.91281992  0.32171554     1.93200
Cr2243     Cr  0.99950163  0.84103238  0.32366452     1.39100
O2244       O  0.00011932  0.87786683  0.33470386    -1.23500
O2245       O  0.53791801  0.64451348  0.11421860    -0.85800
O2246       O  0.97616298  0.66226699  0.11224728    -0.82800
C2247       C  0.94946701  0.66606057  0.10534145     0.97700
O2248       O  0.93918390  0.64700244  0.09367188    -0.82800
O2249       O  0.97284457  0.66120488  0.06325956    -0.85500
C2250       C  0.99629960  0.66346808  0.05299832     1.02200
O2251       O  0.51893684  0.64452768  0.05456810    -0.78200
O2252       O  0.54701873  0.66086608  0.08666644    -0.78400
C2253       C  0.55088326  0.66361125  0.10347250     1.02200
O2254       O  0.51926854  0.58016592  0.11276214    -0.85800
O2255       O  0.95750711  0.59776853  0.11430328    -0.82800
C2256       C  0.94525041  0.57821829  0.10361821     0.97700
O2257       O  0.94906118  0.58111473  0.08682202    -0.82800
O2258       O  0.97795126  0.59574888  0.05488764    -0.85500
C2259       C  0.00051263  0.57657469  0.05400179     1.02200
O2260       O  0.52383506  0.57958504  0.06427571    -0.78300
O2261       O  0.55691991  0.59526763  0.09454782    -0.78400
C2262       C  0.54635965  0.57651766  0.10634756     1.02200
Cr2263     Cr  0.99771662  0.62118168  0.11156251     1.93700
Cr2264     Cr  0.96237238  0.62122542  0.07560193     1.93200
Cr2265     Cr  0.53400242  0.62019368  0.07591187     1.39100
O2266       O  0.99801705  0.62092007  0.08766650    -1.23500
O2267       O  0.78872226  0.89252062  0.14356271    -0.85800
O2268       O  0.77119745  0.83059605  0.14216370    -0.82800
C2269       C  0.79067152  0.81789636  0.15278706     0.97700
O2270       O  0.78840109  0.82193059  0.16960135    -0.82800
O2271       O  0.77277395  0.84946703  0.20209005    -0.85500
C2272       C  0.79191200  0.87207025  0.20317466     1.02200
O2273       O  0.78940123  0.89526733  0.19268782    -0.78200
O2274       O  0.77539782  0.92952471  0.16273499    -0.78400
C2275       C  0.79354172  0.91895433  0.15068493     1.02200
O2276       O  0.72457283  0.91167322  0.14238599    -0.85800
O2277       O  0.70680147  0.84936955  0.14430543    -0.82800
C2278       C  0.70360180  0.82213444  0.15080651     0.97700
O2279       O  0.72319851  0.81157992  0.16209831    -0.82800
O2280       O  0.70789595  0.84486070  0.19221231    -0.85500
C2281       C  0.70447397  0.86853366  0.20220778     1.02200
O2282       O  0.72403294  0.89085725  0.20169082    -0.78300
O2283       O  0.70968871  0.92057388  0.17017819    -0.78400
C2284       C  0.70628579  0.92481227  0.15347205     1.02200
Cr2285     Cr  0.74783626  0.87103227  0.14490210     1.93700
Cr2286     Cr  0.74817748  0.83463560  0.18062494     1.93200
Cr2287     Cr  0.74954618  0.90643568  0.18090504     1.39100
O2288       O  0.74854934  0.87077596  0.16880977    -1.23500
C2289       C  0.57143327  0.68824385  0.11096487    -0.01700
C2290       C  0.58147663  0.68586765  0.12890485    -0.09700
C2291       C  0.60115990  0.70839672  0.13636636    -0.18600
C2292       C  0.61151393  0.73439433  0.12606382     0.03800
C2293       C  0.60045694  0.73735015  0.10803542     0.18000
C2294       C  0.58082500  0.71419500  0.10060063    -0.20000
C2295       C  0.60922852  0.76327909  0.09751637    -0.21200
C2296       C  0.62939327  0.78600248  0.10437777    -0.19800
C2297       C  0.64169163  0.78305763  0.12181475     0.19400
C2298       C  0.63279500  0.75726641  0.13294444     0.01500
C2299       C  0.64633807  0.75491626  0.15030228    -0.14500
C2300       C  0.66861160  0.77654273  0.15604505    -0.12200
C2301       C  0.67784218  0.80149252  0.14492259     0.01100
C2302       C  0.66367488  0.80519408  0.12799148    -0.24400
H2303       H  0.57437435  0.66619073  0.13728090     0.09100
H2304       H  0.60771542  0.70469544  0.15020120     0.12600
H2305       H  0.57275049  0.71646048  0.08679494     0.11400
H2306       H  0.60063278  0.76588554  0.08383572     0.12600
H2307       H  0.63597617  0.80562689  0.09583371     0.11600
H2308       H  0.64099676  0.73626477  0.15959665     0.08700
H2309       H  0.67899415  0.77343159  0.16927993     0.11900
H2310       H  0.67079735  0.82443748  0.11930461     0.13800
C2311       C  0.81526332  0.79740786  0.14526787    -0.01700
C2312       C  0.81359999  0.78811026  0.12717888    -0.09700
C2313       C  0.83625390  0.76854333  0.11976674    -0.18600
C2314       C  0.86163275  0.75757394  0.13025402     0.03800
C2315       C  0.86350156  0.76738625  0.14856490     0.18000
C2316       C  0.84036868  0.78706041  0.15589635    -0.20000
C2317       C  0.88826267  0.75724803  0.15948368    -0.21200
C2318       C  0.91089542  0.73694027  0.15272304    -0.19800
C2319       C  0.90925468  0.72623164  0.13489803     0.19400
C2320       C  0.88481317  0.73672722  0.12332572     0.01500
C2321       C  0.88421609  0.72529230  0.10542664    -0.14500
C2322       C  0.90583827  0.70307648  0.09962080    -0.12200
C2323       C  0.92911095  0.69195155  0.11125618     0.01100
C2324       C  0.93136926  0.70431277  0.12870800    -0.24400
H2325       H  0.79443292  0.79574202  0.11866192     0.09100
H2326       H  0.83299855  0.76235226  0.10581167     0.12600
H2327       H  0.84193643  0.79432226  0.16989072     0.11400
H2328       H  0.88993352  0.76478034  0.17341836     0.12600
H2329       H  0.92952339  0.72914091  0.16159134     0.11600
H2330       H  0.86700066  0.73244972  0.09564230     0.08700
H2331       H  0.90408038  0.69421715  0.08595229     0.11900
H2332       H  0.94945077  0.69578626  0.13774597     0.13800
C2333       C  0.92585129  0.55248668  0.11101602    -0.01700
C2334       C  0.92316588  0.54853812  0.12974019    -0.09700
C2335       C  0.90422923  0.52501994  0.13698450    -0.18600
C2336       C  0.88707635  0.50463505  0.12565623     0.03800
C2337       C  0.89093099  0.50786410  0.10666905     0.18000
C2338       C  0.91006839  0.53168969  0.09955576    -0.20000
C2339       C  0.87533191  0.98757297  0.09487040    -0.21200
C2340       C  0.85533488  0.96452039  0.10149986    -0.19800
C2341       C  0.84992207  0.96168728  0.12005776     0.19400
C2342       C  0.86576311  0.98164620  0.13244499     0.01500
C2343       C  0.85853615  0.97860969  0.15101072    -0.14500
C2344       C  0.83554156  0.95769894  0.15686298    -0.12200
C2345       C  0.81975296  0.93857037  0.14454121     0.01100
C2346       C  0.82771347  0.93987759  0.12624970    -0.24400
H2347       H  0.93564714  0.56385092  0.13892359     0.09100
H2348       H  0.90351486  0.52349477  0.15149502     0.12600
H2349       H  0.91236064  0.53424353  0.08504613     0.11400
H2350       H  0.87839130  0.98973583  0.08039404     0.12600
H2351       H  0.84332068  0.94938750  0.09200455     0.11600
H2352       H  0.86933747  0.49281408  0.16128747     0.08700
H2353       H  0.82979432  0.95670098  0.17110741     0.11900
H2354       H  0.81529063  0.92515901  0.11669662     0.13800
C2355       C  0.68130944  0.94579725  0.14679278    -0.01700
C2356       C  0.65765435  0.95617791  0.15843125    -0.09700
C2357       C  0.63400897  0.97602701  0.15221609    -0.18600
C2358       C  0.63342570  0.98640132  0.13406798     0.03800
C2359       C  0.65767426  0.97597034  0.12235713     0.18000
C2360       C  0.68105043  0.95567337  0.12873635    -0.20000
C2361       C  0.65872049  0.98615237  0.10439546    -0.21200
C2362       C  0.63652376  0.50709917  0.09786364    -0.19800
C2363       C  0.61249527  0.51795518  0.10906714     0.19400
C2364       C  0.61010283  0.50724488  0.12721209     0.01500
C2365       C  0.58460621  0.51810391  0.13770329    -0.14500
C2366       C  0.56325116  0.53971965  0.13068759    -0.12200
C2367       C  0.56678748  0.55132188  0.11313432     0.01100
C2368       C  0.59109163  0.53992721  0.10228793    -0.24400
H2369       H  0.65732375  0.94884404  0.17244540     0.09100
H2370       H  0.61681036  0.48314557  0.16202928     0.12600
H2371       H  0.69939552  0.94793944  0.11964444     0.11400
H2372       H  0.67713057  0.97824595  0.09540939     0.12600
H2373       H  0.63826734  0.51500535  0.08397627     0.11600
H2374       H  0.58058117  0.51051037  0.15139097     0.08700
H2375       H  0.54446660  0.54814011  0.13923728     0.11900
H2376       H  0.59354846  0.54846839  0.08854660     0.13800
C2377       C  0.67818034  0.86994709  0.21507788    -0.01700
C2378       C  0.65870285  0.84389036  0.21773680    -0.09700
C2379       C  0.63498543  0.84464767  0.23066363    -0.18600
C2380       C  0.63008847  0.87165849  0.24143136     0.03800
C2381       C  0.64914305  0.89844419  0.23812567     0.18000
C2382       C  0.67276324  0.89738780  0.22502932    -0.20000
C2383       C  0.64504216  0.92593499  0.24818638    -0.21200
C2384       C  0.62301010  0.92712174  0.26195144    -0.19800
C2385       C  0.60454624  0.90086013  0.26595076     0.19400
C2386       C  0.60748369  0.87287808  0.25558517     0.01500
C2387       C  0.58809860  0.84713571  0.26009028    -0.14500
C2388       C  0.56712653  0.84895192  0.27442520    -0.12200
C2389       C  0.56461681  0.87638956  0.28476950     0.01100
C2390       C  0.58330473  0.90234730  0.28038794    -0.24400
H2391       H  0.66213770  0.82255408  0.21002523     0.09100
H2392       H  0.62125524  0.82354561  0.23203782     0.12600
H2393       H  0.68737295  0.91789988  0.22283516     0.11400
H2394       H  0.65934987  0.94650748  0.24559297     0.12600
H2395       H  0.62069974  0.94859706  0.26968695     0.11600
H2396       H  0.58862998  0.82516385  0.25290794     0.08700
H2397       H  0.55279913  0.82857582  0.27741931     0.11900
H2398       H  0.58131724  0.92378357  0.28820095     0.13800
C2399       C  0.81669600  0.87189558  0.21713673    -0.01700
C2400       C  0.83871960  0.89624144  0.21766697    -0.09700
C2401       C  0.86183130  0.89693595  0.23090807    -0.18600
C2402       C  0.86373533  0.87316023  0.24424717     0.03800
C2403       C  0.84152538  0.84830406  0.24361295     0.18000
C2404       C  0.81834143  0.84786260  0.23013338    -0.20000
C2405       C  0.84252730  0.82413473  0.25647793    -0.21200
C2406       C  0.86510047  0.82415623  0.27002915    -0.19800
C2407       C  0.88718885  0.84840226  0.27110235     0.19400
C2408       C  0.88679403  0.87324766  0.25819895     0.01500
C2409       C  0.90942914  0.89724252  0.25986569    -0.14500
C2410       C  0.93138533  0.89667487  0.27370418    -0.12200
C2411       C  0.93185293  0.87223827  0.28643574     0.01100
C2412       C  0.90965731  0.84804928  0.28502964    -0.24400
H2413       H  0.83811958  0.91503969  0.20777825     0.09100
H2414       H  0.87776811  0.91651388  0.23028479     0.12600
H2415       H  0.80141203  0.82887304  0.22986695     0.11400
H2416       H  0.82569092  0.80508335  0.25607515     0.12600
H2417       H  0.86520695  0.80512074  0.27978107     0.11600
H2418       H  0.91087623  0.91692380  0.25074189     0.08700
H2419       H  0.94824939  0.91566324  0.27434345     0.11900
H2420       H  0.90980091  0.82898888  0.29477447     0.13800
C2421       C  0.68294946  0.69994809  0.39308165    -0.01700
C2422       C  0.68659251  0.71086419  0.37536125    -0.09700
C2423       C  0.66588935  0.73296628  0.36813373    -0.18600
C2424       C  0.64095265  0.74518156  0.37856202     0.03800
C2425       C  0.63853798  0.73534126  0.39687556     0.18000
C2426       C  0.65913131  0.71263032  0.40384469    -0.20000
C2427       C  0.61534326  0.74792515  0.40807496    -0.21200
C2428       C  0.59396306  0.76961734  0.40137718    -0.19800
C2429       C  0.59471658  0.77860562  0.38319405     0.19400
C2430       C  0.61815938  0.76649994  0.37147979     0.01500
C2431       C  0.61710783  0.77549954  0.35308669    -0.14500
C2432       C  0.59349091  0.79521921  0.34659135    -0.12200
C2433       C  0.57039090  0.80697970  0.35818585     0.01100
C2434       C  0.57155277  0.79898885  0.37655664    -0.24400
H2435       H  0.70499552  0.70156147  0.36683978     0.09100
H2436       H  0.67001433  0.73998601  0.35435154     0.12600
H2437       H  0.65654164  0.70469282  0.41769248     0.11400
H2438       H  0.61362247  0.74081868  0.42210278     0.12600
H2439       H  0.57619443  0.77881583  0.41038388     0.11600
H2440       H  0.63370141  0.76705260  0.34327237     0.08700
H2441       H  0.59322118  0.80110279  0.33235624     0.11900
H2442       H  0.55375787  0.80785222  0.38566703     0.13800
C2443       C  0.82413465  0.69590794  0.39510126    -0.01700
C2444       C  0.82925599  0.69796579  0.37644668    -0.09700
C2445       C  0.84897897  0.72080716  0.36921838    -0.18600
C2446       C  0.86455374  0.74255841  0.38046258     0.03800
C2447       C  0.85843585  0.74124239  0.39932565     0.18000
C2448       C  0.83838260  0.71804891  0.40645539    -0.20000
C2449       C  0.87278818  0.76274888  0.41097023    -0.21200
C2450       C  0.89366149  0.78511905  0.40434040    -0.19800
C2451       C  0.90090258  0.78639484  0.38591480     0.19400
C2452       C  0.88634586  0.76516492  0.37369320     0.01500
C2453       C  0.89492082  0.76688615  0.35527947    -0.14500
C2454       C  0.91756327  0.78807016  0.34937524    -0.12200
C2455       C  0.93199119  0.80872177  0.36143875     0.01100
C2456       C  0.92318891  0.80826427  0.37965654    -0.24400
H2457       H  0.81821374  0.68154103  0.36728666     0.09100
H2458       H  0.85161403  0.72059717  0.35475975     0.12600
H2459       H  0.83421947  0.71700050  0.42088665     0.11400
H2460       H  0.86808877  0.76205350  0.42534667     0.12600
H2461       H  0.90462821  0.80119536  0.41374296     0.11600
H2462       H  0.88515028  0.75174832  0.34510487     0.08700
H2463       H  0.92394901  0.78824536  0.33521072     0.11900
H2464       H  0.93457775  0.82406574  0.38906134     0.13800
C2465       C  0.93312385  0.95368214  0.35587810    -0.01700
C2466       C  0.90578555  0.95920911  0.34595629    -0.09700
C2467       C  0.88242892  0.97901899  0.35267866    -0.18600
C2468       C  0.88602919  0.99431973  0.36949958     0.03800
C2469       C  0.91443689  0.98946105  0.37911698     0.18000
C2470       C  0.93732283  0.96903220  0.37239083    -0.20000
C2471       C  0.92001331  0.50514281  0.39536739    -0.21200
C2472       C  0.89801295  0.52583059  0.40228704    -0.19800
C2473       C  0.86964659  0.53081557  0.39331371     0.19400
C2474       C  0.86285528  0.51470984  0.37699114     0.01500
C2475       C  0.83320050  0.51978506  0.36896001    -0.14500
C2476       C  0.81192812  0.54119162  0.37637225    -0.12200
C2477       C  0.81955061  0.55814031  0.39195103     0.01100
C2478       C  0.84819155  0.55223482  0.40052652    -0.24400
H2479       H  0.90221369  0.94776948  0.33306885     0.09100
H2480       H  0.86202531  0.98217211  0.34432413     0.12600
H2481       H  0.95874286  0.96537132  0.37996631     0.11400
H2482       H  0.94171094  0.50165323  0.40268181     0.12600
H2483       H  0.90320924  0.53798943  0.41477712     0.11600
H2484       H  0.82582029  0.00764195  0.35694034     0.08700
H2485       H  0.78974799  0.54499854  0.36963816     0.11900
H2486       H  0.85412431  0.56474604  0.41279898     0.13800
C2487       C  0.56749043  0.95233257  0.35803885    -0.01700
C2488       C  0.57615520  0.97807701  0.34733045    -0.09700
C2489       C  0.59719252  0.00051258  0.35371695    -0.18600
C2490       C  0.61004914  0.99813196  0.37126044     0.03800
C2491       C  0.60107451  0.97199410  0.38210033     0.18000
C2492       C  0.58033544  0.94924611  0.37534789    -0.20000
C2493       C  0.61246570  0.96893727  0.39972427    -0.21200
C2494       C  0.63255542  0.99136689  0.40689427    -0.19800
C2495       C  0.64211201  0.51718420  0.39653502     0.19400
C2496       C  0.63121531  0.52083657  0.37850300     0.01500
C2497       C  0.64211947  0.54697915  0.36850089    -0.14500
C2498       C  0.66292749  0.56844740  0.37607706    -0.12200
C2499       C  0.67340806  0.56488882  0.39388954     0.01100
C2500       C  0.66273500  0.53927883  0.40408652    -0.24400
H2501       H  0.56651223  0.98098862  0.33390508     0.09100
H2502       H  0.60248371  0.51964678  0.34467387     0.12600
H2503       H  0.57345128  0.92958265  0.38380749     0.11400
H2504       H  0.60560238  0.94915400  0.40808278     0.12600
H2505       H  0.64082044  0.98839830  0.42062321     0.11600
H2506       H  0.63530331  0.55140554  0.35473589     0.08700
H2507       H  0.67074212  0.58809816  0.36790281     0.11900
H2508       H  0.67088727  0.53623339  0.41784032     0.13800
C2509       C  0.75112552  0.55744499  0.46572092    -0.01700
C2510       C  0.72290304  0.55133577  0.47476212    -0.09700
C2511       C  0.72121413  0.52893645  0.48852571    -0.18600
C2512       C  0.74795343  0.51181244  0.49393953     0.03800
C2513       C  0.77661724  0.51801545  0.48476829     0.18000
C2514       C  0.77788359  0.54037147  0.47069895    -0.20000
C2515       C  0.80395433  0.00221567  0.48988975    -0.21200
C2516       C  0.80352246  0.98053278  0.50398104    -0.19800
C2517       C  0.77566111  0.97375318  0.51318401     0.19400
C2518       C  0.74738166  0.98907842  0.50823949     0.01500
C2519       C  0.71983149  0.98092216  0.51784475    -0.14500
C2520       C  0.72046217  0.95875765  0.53183630    -0.12200
C2521       C  0.74841795  0.94380960  0.53669820     0.01100
C2522       C  0.77593747  0.95153678  0.52726825    -0.24400
H2523       H  0.70182560  0.56409639  0.47124049     0.09100
H2524       H  0.69867479  0.52591954  0.49482090     0.12600
H2525       H  0.79991968  0.54499982  0.46392000     0.11400
H2526       H  0.82591273  0.00684583  0.48304041     0.12600
H2527       H  0.82516356  0.96888451  0.50767233     0.11600
H2528       H  0.69733989  0.49105550  0.51479667     0.08700
H2529       H  0.69881966  0.95299055  0.53871611     0.11900
H2530       H  0.79776988  0.94013057  0.53085744     0.13800
C2531       C  0.75742355  0.80787104  0.53710102    -0.01700
C2532       C  0.78497337  0.79187151  0.53260432    -0.09700
C2533       C  0.78511737  0.76939332  0.51887957    -0.18600
C2534       C  0.75747203  0.76207455  0.50921633     0.03800
C2535       C  0.72947390  0.77793637  0.51412942     0.18000
C2536       C  0.72973326  0.80056391  0.52785702    -0.20000
C2537       C  0.70131344  0.77123153  0.50529773    -0.21200
C2538       C  0.70029097  0.74908384  0.49157241    -0.19800
C2539       C  0.72744272  0.73324491  0.48626108     0.19400
C2540       C  0.75648756  0.73956142  0.49494197     0.01500
C2541       C  0.78323027  0.72307866  0.48891883    -0.14500
C2542       C  0.78104092  0.70083882  0.47518502    -0.12200
C2543       C  0.75229575  0.69439306  0.46686781     0.01100
C2544       C  0.72563846  0.71095280  0.47234817    -0.24400
H2545       H  0.80666193  0.79701270  0.53956771     0.09100
H2546       H  0.80723676  0.75819357  0.51618650     0.12600
H2547       H  0.70817302  0.81257141  0.53133546     0.11400
H2548       H  0.67988226  0.78319618  0.50904838     0.12600
H2549       H  0.67809406  0.74435936  0.48503520     0.11600
H2550       H  0.80618484  0.72675608  0.49453738     0.08700
H2551       H  0.80209131  0.68860640  0.47104975     0.11900
H2552       H  0.70330015  0.70612837  0.46598051     0.13800
C2553       C  0.57520619  0.69476048  0.64642121    -0.01700
C2554       C  0.59563088  0.71067001  0.65798577    -0.09700
C2555       C  0.61847098  0.73088389  0.65111217    -0.18600
C2556       C  0.62158663  0.73601233  0.63229812     0.03800
C2557       C  0.60170407  0.71878707  0.62056583     0.18000
C2558       C  0.57885204  0.69845569  0.62767619    -0.20000
C2559       C  0.60431168  0.72244239  0.60182272    -0.21200
C2560       C  0.62564670  0.74364069  0.59446022    -0.19800
C2561       C  0.64473651  0.76190024  0.60566027     0.19400
C2562       C  0.64320539  0.75806420  0.62474100     0.01500
C2563       C  0.66276520  0.77713203  0.63547724    -0.14500
C2564       C  0.68224611  0.79961527  0.62769308    -0.12200
C2565       C  0.68325078  0.80397245  0.60893758     0.01100
C2566       C  0.66481649  0.78455158  0.59793920    -0.24400
H2567       H  0.59363258  0.70794864  0.67248490     0.09100
H2568       H  0.63305482  0.74236795  0.66093990     0.12600
H2569       H  0.56345896  0.68593519  0.61854391     0.11400
H2570       H  0.58941692  0.70913741  0.59279077     0.12600
H2571       H  0.62676782  0.74622679  0.57991438     0.11600
H2572       H  0.66320886  0.77575574  0.64998683     0.08700
H2573       H  0.69638109  0.81401395  0.63656091     0.11900
H2574       H  0.66544905  0.78759837  0.58340720     0.13800
C2575       C  0.82943672  0.81032965  0.61016215    -0.01700
C2576       C  0.86150291  0.81661662  0.60834992    -0.09700
C2577       C  0.88394761  0.79550845  0.61471595    -0.18600
C2578       C  0.87511476  0.76687567  0.62300316     0.03800
C2579       C  0.84256423  0.76019733  0.62450425     0.18000
C2580       C  0.82011443  0.78205668  0.61834840    -0.20000
C2581       C  0.83265315  0.73165223  0.63204035    -0.21200
C2582       C  0.85432634  0.70951833  0.63805172    -0.19800
C2583       C  0.88650741  0.71558100  0.63703968     0.19400
C2584       C  0.89737702  0.74458266  0.62973728     0.01500
C2585       C  0.93005113  0.75015693  0.62973999    -0.14500
C2586       C  0.95090080  0.72797108  0.63671665    -0.12200
C2587       C  0.94013097  0.69923539  0.64348556     0.01100
C2588       C  0.90793317  0.69298209  0.64349599    -0.24400
H2589       H  0.86939825  0.83826656  0.60209706     0.09100
H2590       H  0.90803242  0.80217953  0.61273364     0.12600
H2591       H  0.79537270  0.77680733  0.61964256     0.11400
H2592       H  0.80792519  0.72628930  0.63317536     0.12600
H2593       H  0.84582711  0.68759277  0.64370260     0.11600
H2594       H  0.94025016  0.77165703  0.62476476     0.08700
H2595       H  0.97573789  0.73318488  0.63668714     0.11900
H2596       H  0.89954333  0.67088489  0.64900470     0.13800
C2597       C  0.82451005  0.94577428  0.60879974    -0.01700
C2598       C  0.82331411  0.95193425  0.62736293    -0.09700
C2599       C  0.84302468  0.97413223  0.63517390    -0.18600
C2600       C  0.86501347  0.99086436  0.62463473     0.03800
C2601       C  0.86568205  0.98505269  0.60571490     0.18000
C2602       C  0.84535858  0.96286700  0.59797935    -0.20000
C2603       C  0.88707509  0.00093451  0.59467758    -0.21200
C2604       C  0.90828220  0.02205650  0.60205650    -0.19800
C2605       C  0.90859475  0.52782654  0.62064827     0.19400
C2606       C  0.88676153  0.51263031  0.63221969     0.01500
C2607       C  0.88809554  0.51947712  0.65090376    -0.14500
C2608       C  0.91076688  0.53977535  0.65781382    -0.12200
C2609       C  0.93271578  0.55401537  0.64638387     0.01100
C2610       C  0.93109520  0.54832119  0.62776868    -0.24400
H2611       H  0.80716100  0.93927811  0.63601066     0.09100
H2612       H  0.84071988  0.47725327  0.64953493     0.12600
H2613       H  0.84645987  0.95823062  0.58360328     0.11400
H2614       H  0.88768655  0.99668857  0.58025938     0.12600
H2615       H  0.92483036  0.03368563  0.59317371     0.11600
H2616       H  0.87224132  0.50928230  0.66059308     0.08700
H2617       H  0.91134430  0.54397557  0.67222923     0.11900
H2618       H  0.94783275  0.55938852  0.61875875     0.13800
C2619       C  0.56961655  0.55061651  0.64583895    -0.01700
C2620       C  0.59973699  0.56124553  0.64148267    -0.09700
C2621       C  0.62281645  0.54020914  0.63557550    -0.18600
C2622       C  0.61611774  0.50783966  0.63330778     0.03800
C2623       C  0.58517716  0.49747157  0.63722889     0.18000
C2624       C  0.56265919  0.51861467  0.64386808    -0.20000
C2625       C  0.57663350  0.96618173  0.63412809    -0.21200
C2626       C  0.59791205  0.94505491  0.62677272    -0.19800
C2627       C  0.62868052  0.95431070  0.62302056     0.19400
C2628       C  0.63860588  0.98553367  0.62681324     0.01500
C2629       C  0.67060379  0.99286063  0.62404395    -0.14500
C2630       C  0.69150829  0.97037552  0.61727325    -0.12200
C2631       C  0.68108430  0.94025411  0.61260170     0.01100
C2632       C  0.64964203  0.93239019  0.61556474    -0.24400
H2633       H  0.60557270  0.58591253  0.64286094     0.09100
H2634       H  0.64542779  0.55006056  0.63241792     0.12600
H2635       H  0.53923669  0.51032082  0.64694577     0.11400
H2636       H  0.55306556  0.95815759  0.63701173     0.12600
H2637       H  0.59030156  0.92119316  0.62413684     0.11600
H2638       H  0.68020745  0.51560783  0.62726392     0.08700
H2639       H  0.71583045  0.97676835  0.61532227     0.11900
H2640       H  0.64162143  0.90884253  0.61239490     0.13800
C2641       C  0.68368206  0.61625138  0.78899905    -0.01700
C2642       C  0.66665933  0.58871466  0.78560639    -0.09700
C2643       C  0.64339190  0.58806891  0.77234133    -0.18600
C2644       C  0.63625500  0.61517031  0.76202353     0.03800
C2645       C  0.65249058  0.64342992  0.76616536     0.18000
C2646       C  0.67608112  0.64363611  0.77936173    -0.20000
C2647       C  0.64521946  0.67134440  0.75705496    -0.21200
C2648       C  0.62226597  0.67180607  0.74377831    -0.19800
C2649       C  0.60663399  0.64418685  0.73891687     0.19400
C2650       C  0.61366458  0.61533243  0.74777168     0.01500
C2651       C  0.59833039  0.58784883  0.74164485    -0.14500
C2652       C  0.57676162  0.58911251  0.72746722    -0.12200
C2653       C  0.56928579  0.61777696  0.71920111     0.01100
C2654       C  0.58424701  0.64522930  0.72505402    -0.24400
H2655       H  0.67160468  0.56736781  0.79307681     0.09100
H2656       H  0.63128925  0.56606641  0.77054255     0.12600
H2657       H  0.68858920  0.66528695  0.78211359     0.11400
H2658       H  0.65732356  0.69302437  0.76025557     0.12600
H2659       H  0.61709420  0.69384276  0.73703571     0.11600
H2660       H  0.60290663  0.56495869  0.74731951     0.08700
H2661       H  0.56545620  0.56760235  0.72315630     0.11900
H2662       H  0.57885350  0.66744730  0.71854712     0.13800
C2663       C  0.93333282  0.63084942  0.71722982    -0.01700
C2664       C  0.92186089  0.65934523  0.72396618    -0.09700
C2665       C  0.89928781  0.65972384  0.73767897    -0.18600
C2666       C  0.88716997  0.63141272  0.74498387     0.03800
C2667       C  0.89762375  0.60264160  0.73734737     0.18000
C2668       C  0.92069674  0.60260888  0.72382281    -0.20000
C2669       C  0.88516746  0.57401027  0.74333478    -0.21200
C2670       C  0.86265891  0.57325967  0.75689754    -0.19800
C2671       C  0.85262971  0.60105672  0.76516081     0.19400
C2672       C  0.86504901  0.63052828  0.75951442     0.01500
C2673       C  0.85523298  0.65770149  0.76891693    -0.14500
C2674       C  0.83354726  0.65573707  0.78302493    -0.12200
C2675       C  0.82055948  0.62678318  0.78814474     0.01100
C2676       C  0.83035811  0.59950152  0.77914439    -0.24400
H2677       H  0.93094426  0.68147460  0.71893712     0.09100
H2678       H  0.89170276  0.68252682  0.74223907     0.12600
H2679       H  0.92889442  0.58041521  0.71840596     0.11400
H2680       H  0.89283320  0.55201059  0.73744582     0.12600
H2681       H  0.85337323  0.55070603  0.76114526     0.11600
H2682       H  0.86418799  0.68078628  0.76583403     0.08700
H2683       H  0.82654543  0.67717169  0.78978165     0.11900
H2684       H  0.82080500  0.57689843  0.78312342     0.13800
C2685       C  0.00068024  0.93876521  0.96982126    -0.01700
C2686       C  0.97602171  0.96034027  0.97083210    -0.09700
C2687       C  0.97491707  0.98261175  0.98453243    -0.18600
C2688       C  0.99859193  0.98406528  0.99782468     0.03800
C2689       C  0.52407820  0.96272724  0.99648967     0.18000
C2690       C  0.52481333  0.94024094  0.98263478    -0.20000
C2691       C  0.54867535  0.96404749  0.00895305    -0.21200
C2692       C  0.54867529  0.98642223  0.02262670    -0.19800
C2693       C  0.52376512  0.50757653  0.02438195     0.19400
C2694       C  0.99806542  0.50624054  0.01221286     0.01500
C2695       C  0.97282791  0.52709601  0.01500482    -0.14500
C2696       C  0.97370506  0.54927423  0.02873689    -0.12200
C2697       C  0.99961711  0.55151703  0.04023626     0.01100
C2698       C  0.52441756  0.53022267  0.03817483    -0.24400
H2699       H  0.95725827  0.95998282  0.96100231     0.09100
H2700       H  0.95532133  0.49851340  0.98418402     0.12600
H2701       H  0.54415983  0.92379662  0.98189263     0.11400
H2702       H  0.56821483  0.94788457  0.00800269     0.12600
H2703       H  0.56825044  0.98713238  0.03191808     0.11600
H2704       H  0.95193805  0.52687994  0.00688182     0.08700
H2705       H  0.95393882  0.56501537  0.03019867     0.11900
H2706       H  0.54438092  0.53144155  0.04717957     0.13800
C2707       C  0.00168890  0.80208714  0.96882081    -0.01700
C2708       C  0.52559126  0.77966065  0.96972942    -0.09700
C2709       C  0.52530752  0.75642094  0.98301027    -0.18600
C2710       C  0.50097751  0.75490846  0.99595254     0.03800
C2711       C  0.97619199  0.77704301  0.99459660     0.18000
C2712       C  0.97684923  0.80040376  0.98119691    -0.20000
C2713       C  0.95093624  0.77577388  0.00663656    -0.21200
C2714       C  0.94978243  0.75293169  0.02007885    -0.19800
C2715       C  0.97419862  0.73127165  0.02205281     0.19400
C2716       C  0.50032192  0.73219600  0.01013464     0.01500
C2717       C  0.52493734  0.71066802  0.01310426    -0.14500
C2718       C  0.52341380  0.68879620  0.02705181    -0.12200
C2719       C  0.99738945  0.68744642  0.03854962     0.01100
C2720       C  0.97281810  0.70882999  0.03599067    -0.24400
H2721       H  0.54478749  0.78011409  0.96016694     0.09100
H2722       H  0.54440678  0.73992035  0.98267496     0.12600
H2723       H  0.95800927  0.81743981  0.98050077     0.11400
H2724       H  0.93187562  0.79249464  0.00560681     0.12600
H2725       H  0.92983846  0.75244816  0.02912932     0.11600
H2726       H  0.54593135  0.71030596  0.00505645     0.08700
H2727       H  0.54288639  0.67276476  0.02878458     0.11900
H2728       H  0.95266665  0.70814152  0.04489330     0.13800
C2729       C  0.57070797  0.80167045  0.89498802    -0.01700
C2730       C  0.56519246  0.78876849  0.87789663    -0.09700
C2731       C  0.58621978  0.76728989  0.87031530    -0.18600
C2732       C  0.61345878  0.75778262  0.87973439     0.03800
C2733       C  0.61825332  0.77014582  0.89734771     0.18000
C2734       C  0.59714553  0.79193425  0.90468751    -0.20000
C2735       C  0.64426570  0.76095535  0.90752512    -0.21200
C2736       C  0.66585867  0.73982525  0.90057085    -0.19800
C2737       C  0.66222449  0.72767518  0.88316660     0.19400
C2738       C  0.63614123  0.73657390  0.87238822     0.01500
C2739       C  0.63426924  0.72417050  0.85468951    -0.12900
C2740       C  0.65729220  0.70378979  0.84807069    -0.12200
C2741       C  0.68264682  0.69480099  0.85890274     0.01100
C2742       C  0.68482181  0.70683004  0.87645473    -0.24400
H2743       H  0.54490289  0.79588698  0.87013776     0.09100
H2744       H  0.58054316  0.75860097  0.85706287     0.12600
H2745       H  0.60143593  0.80149433  0.91802137     0.11400
H2746       H  0.64795999  0.77019870  0.92098136     0.12600
H2747       H  0.68574582  0.73316984  0.90881712     0.11600
H2748       H  0.61551237  0.73005020  0.84556974     0.08700
H2749       H  0.65512771  0.69488546  0.83443859     0.11900
H2750       H  0.70455399  0.70036852  0.88488734     0.13800
C2751       C  0.81638017  0.69468025  0.86377195    -0.01700
C2752       C  0.83106969  0.68827234  0.88029811    -0.09700
C2753       C  0.85185779  0.70986753  0.88798268    -0.18600
C2754       C  0.85893361  0.73863804  0.87923417     0.03800
C2755       C  0.84429104  0.74475618  0.86235173     0.18000
C2756       C  0.82312718  0.72306855  0.85493420    -0.20000
C2757       C  0.85099905  0.77241274  0.85284620    -0.21200
C2758       C  0.87245822  0.79396271  0.85954857    -0.19800
C2759       C  0.88732666  0.78871940  0.87610243     0.19400
C2760       C  0.88031304  0.76133818  0.88641425     0.01500
C2761       C  0.89499789  0.75801322  0.90343232    -0.14500
C2762       C  0.91623269  0.78053246  0.90968363    -0.12200
C2763       C  0.92389311  0.80684926  0.89914457     0.01100
C2764       C  0.90920077  0.81081353  0.88239257    -0.24400
H2765       H  0.82622764  0.66657415  0.88745814     0.09100
H2766       H  0.86225725  0.70321403  0.90067743     0.12600
H2767       H  0.81204874  0.72825858  0.84210187     0.11400
H2768       H  0.83987021  0.77722728  0.83998847     0.12600
H2769       H  0.87744782  0.81492983  0.85171507     0.11600
H2770       H  0.89039308  0.73840614  0.91228262     0.08700
H2771       H  0.92703127  0.77710526  0.92277014     0.11900
H2772       H  0.91448009  0.83143741  0.87430821     0.13800
C2773       C  0.82252719  0.55045940  0.86091340    -0.01700
C2774       C  0.84815464  0.54180959  0.85020950    -0.09700
C2775       C  0.87209100  0.52298896  0.85720914    -0.18600
C2776       C  0.87090548  0.51170150  0.87518437     0.03800
C2777       C  0.84483248  0.52054335  0.88598025     0.18000
C2778       C  0.82134429  0.54010117  0.87889927    -0.20000
C2779       C  0.84183218  0.50906269  0.90362312    -0.21200
C2780       C  0.86341945  0.48775891  0.91051794    -0.19800
C2781       C  0.88898545  0.97806533  0.90010842     0.19400
C2782       C  0.89386020  0.99088343  0.88258476     0.01500
C2783       C  0.92116442  0.98174969  0.87313365    -0.14500
C2784       C  0.94137028  0.95901441  0.88019656    -0.12200
C2785       C  0.93498662  0.94457613  0.89680891     0.01100
C2786       C  0.90928013  0.95496773  0.90694648    -0.24400
H2787       H  0.84970648  0.54955582  0.83629599     0.09100
H2788       H  0.89074741  0.01695592  0.84805595     0.12600
H2789       H  0.80155326  0.54648043  0.88730079     0.11400
H2790       H  0.82209399  0.51582956  0.91195413     0.12600
H2791       H  0.85985381  0.47847205  0.92400304     0.11600
H2792       H  0.92738344  0.99152794  0.86018632     0.08700
H2793       H  0.96151563  0.95194359  0.87230003     0.11900
H2794       H  0.90469461  0.94462049  0.92008111     0.13800
C2795       C  0.57772080  0.93709752  0.89867285    -0.01700
C2796       C  0.58018633  0.96661337  0.90686474    -0.09700
C2797       C  0.60024129  0.98957174  0.89977760    -0.18600
C2798       C  0.61907446  0.98331391  0.88444863     0.03800
C2799       C  0.61726774  0.95281066  0.87669599     0.18000
C2800       C  0.59630171  0.93039347  0.88359756    -0.20000
C2801       C  0.63663427  0.94467433  0.86220539    -0.21200
C2802       C  0.65805696  0.96612018  0.85527948    -0.19800
C2803       C  0.66005666  0.49653628  0.86233990     0.19400
C2804       C  0.64012120  0.50585776  0.87675677     0.01500
C2805       C  0.64213307  0.53732731  0.88276755    -0.14500
C2806       C  0.66400081  0.55814120  0.87534244    -0.12200
C2807       C  0.68464363  0.54838874  0.86172639     0.01100
C2808       C  0.68210569  0.51762375  0.85510801    -0.24400
H2809       H  0.56612391  0.97214342  0.91861484     0.09100
H2810       H  0.60089384  0.51176569  0.90675711     0.12600
H2811       H  0.59489256  0.90732452  0.87743515     0.11400
H2812       H  0.63551709  0.92137712  0.85634070     0.12600
H2813       H  0.67307436  0.95889761  0.84424289     0.11600
H2814       H  0.62705127  0.54657963  0.89314406     0.08700
H2815       H  0.66501438  0.58191927  0.88051186     0.11900
H2816       H  0.69755737  0.50988504  0.84438289     0.13800
loop_ 
_geom_bond_atom_site_label_1 
_geom_bond_atom_site_label_2 
_geom_bond_distance 
_geom_bond_site_symmetry_2 
_ccdc_geom_bond_type 
O1          Cr19   1.978       .  S
O1            C9   1.260       .  A
O2        Cr1427   2.012       .  S
O2            C3   1.267       .  A
C3            O4   1.260       .  A
C3          C683   1.476       .  S
O4          Cr20   1.982       .  S
O5          Cr20   2.008       .  S
O5         C1414   1.265       .  A
C6            O7   1.259       .  A
C6         O1413   1.265       .  A
C6          C573   1.477       .  S
O7          Cr21   1.967       .  S
O8          Cr21   2.005       .  S
O8            C9   1.266       .  A
C9          C673   1.480       .  S
O10         Cr19   2.020       .  S
O10          C18   1.269       .  A
O11       Cr1427   1.980       .  S
O11          C12   1.262       .  A
C12          O13   1.268       .  A
C12         C617   1.481       .  S
O13         Cr20   2.008       .  S
O14         Cr20   1.974       .  S
O14        C1423   1.261       .  A
C15          O16   1.265       .  A
C15        O1422   1.261       .  A
C15         C595   1.477       .  S
O16         Cr21   2.003       .  S
O17         Cr21   1.974       .  S
O17          C18   1.259       .  A
C18         C651   1.482       .  S
Cr19       O1410   2.012       .  S
Cr19       O1419   1.980       .  S
Cr19         O22   1.770       .  S
Cr20       O1430   1.768       .  S
Cr21         O22   1.767       .  S
O22       Cr1428   1.768       .  S
O23         Cr41   2.009       .  S
O23          C31   1.266       .  A
O24         Cr41   1.977       .  S
O24          C25   1.262       .  A
C25          O26   1.269       .  A
C25         C639   1.484       .  S
O26         Cr42   2.013       .  S
O27         Cr42   1.979       .  S
O27          C28   1.261       .  A
C28          O29   1.267       .  A
C28         C563   1.486       .  S
O29         Cr43   2.012       .  S
O30         Cr43   1.982       .  S
O30          C31   1.261       .  A
C31         C661   1.483       .  S
O32         Cr41   1.977       .  S
O32          C40   1.261       .  A
O33         Cr41   2.004       .  S
O33          C34   1.264       .  A
C34          O35   1.260       .  A
C34         C629   1.482       .  S
O35         Cr42   1.983       .  S
O36         Cr42   2.007       .  S
O36          C37   1.267       .  A
C37          O38   1.262       .  A
C37         C529   1.484       .  S
O38         Cr43   1.980       .  S
O39         Cr43   2.015       .  S
O39          C40   1.268       .  A
C40         C695   1.485       .  S
Cr41         O44   1.772       .  S
Cr42         O44   1.770       .  S
Cr43         O44   1.772       .  S
O45         Cr63   1.994       .  S
O45          C53   1.264       .  A
O46         Cr63   1.987       .  S
O46          C47   1.262       .  A
C47          O48   1.267       .  A
C47         C519   1.481       .  S
O48         Cr64   2.016       .  S
O49         Cr64   1.992       .  S
O49          C50   1.265       .  A
C50          O51   1.265       .  A
C50         C409   1.486       .  S
O51         Cr65   2.001       .  S
O52         Cr65   1.983       .  S
O52          C53   1.262       .  A
C53         C485   1.477       .  S
O54         Cr63   1.994       .  S
O54          C62   1.263       .  A
O55         Cr63   1.995       .  S
O55          C56   1.264       .  A
C56          O57   1.261       .  A
C56         C453   1.483       .  S
O57         Cr64   1.989       .  S
O58         Cr64   2.001       .  S
O58          C59   1.266       .  A
C59          O60   1.263       .  A
C59         C419   1.480       .  S
O60         Cr65   1.980       .  S
O61         Cr65   2.006       .  S
O61          C62   1.266       .  A
C62         C463   1.485       .  S
Cr63         O66   1.768       .  S
Cr64         O66   1.774       .  S
Cr65         O66   1.773       .  S
O67         Cr85   1.998       .  S
O67          C75   1.263       .  A
O68         Cr85   1.990       .  S
O68          C69   1.262       .  A
C69          O70   1.267       .  A
C69         C475   1.475       .  S
O70         Cr86   2.014       .  S
O71         Cr86   1.988       .  S
O71          C72   1.263       .  A
C72          O73   1.265       .  A
C72         C551   1.483       .  S
O73         Cr87   2.000       .  S
O74         Cr87   1.977       .  S
O74          C75   1.259       .  A
C75         C497   1.478       .  S
O76       Cr1493   1.988       .  S
O76          C84   1.263       .  A
O77       Cr1493   1.999       .  S
O77          C78   1.263       .  A
C78          O79   1.262       .  A
C78         C441   1.482       .  S
O79       Cr1494   1.985       .  S
O80       Cr1494   2.005       .  S
O80          C81   1.266       .  A
C81          O82   1.261       .  A
C81         C541   1.479       .  S
O82       Cr1495   1.978       .  S
O83       Cr1495   2.017       .  S
O83          C84   1.268       .  A
C84         C507   1.482       .  S
Cr85       O1484   1.988       .  S
Cr85       O1485   1.999       .  S
Cr85         O88   1.770       .  S
Cr86       O1487   1.985       .  S
Cr86       O1488   2.005       .  S
Cr86         O88   1.772       .  S
Cr87       O1490   1.978       .  S
Cr87       O1491   2.017       .  S
Cr87         O88   1.772       .  S
O89        Cr107   1.976       .  S
O89          C97   1.261       .  A
O90        Cr107   1.998       .  S
O90          C91   1.264       .  A
C91          O92   1.261       .  A
C91         C331   1.482       .  S
O92        Cr108   1.988       .  S
O93        Cr108   1.992       .  S
O93          C94   1.262       .  A
C94          O95   1.261       .  A
C94         C431   1.477       .  S
O95        Cr109   1.981       .  S
O96        Cr109   2.007       .  S
O96          C97   1.267       .  A
C97         C309   1.478       .  S
O98        Cr107   1.995       .  S
O98         C106   1.262       .  A
O99        Cr107   1.983       .  S
O99         C100   1.262       .  A
C100        O101   1.265       .  A
C100        C365   1.479       .  S
O101       Cr108   1.997       .  S
O102       Cr108   1.989       .  S
O102        C103   1.264       .  A
C103        O104   1.267       .  A
C103        C397   1.487       .  S
O104       Cr109   2.004       .  S
O105       Cr109   1.984       .  S
O105        C106   1.261       .  A
C106        C387   1.478       .  S
Cr107       O110   1.774       .  S
Cr108       O110   1.772       .  S
Cr109       O110   1.769       .  S
O111      Cr1537   2.006       .  S
O111        C119   1.266       .  A
O112      Cr1537   1.978       .  S
O112        C113   1.261       .  A
C113        O114   1.264       .  A
C113        C375   1.477       .  S
O114      Cr1538   2.000   1_455  S
O115      Cr1538   1.980   1_455  S
O115        C116   1.262       .  A
C116        O117   1.263       .  A
C116        C277   1.476       .  S
O117      Cr1539   1.993   1_455  S
O118      Cr1539   1.981   1_455  S
O118        C119   1.262       .  A
C119        C321   1.482       .  S
O120       Cr129   1.983       .  S
O120        C128   1.261       .  A
O121       Cr129   2.004       .  S
O121        C122   1.266       .  A
C122        O123   1.260       .  A
C122        C353   1.475       .  S
O123       Cr130   1.978       .  S
O124       Cr130   1.996       .  S
O124        C125   1.265       .  A
C125        O126   1.263       .  A
C125        C299   1.482       .  S
O126       Cr131   1.989       .  S
O127       Cr131   1.994       .  S
O127        C128   1.263       .  A
C128        C343   1.473       .  S
Cr129      O1519   2.006       .  S
Cr129      O1520   1.978       .  S
Cr129       O132   1.775       .  S
Cr130      O1522   2.000       .  S
Cr130      O1523   1.980       .  S
Cr130       O132   1.769       .  S
Cr131      O1525   1.993       .  S
Cr131      O1526   1.981       .  S
Cr131       O132   1.769       .  S
O133      Cr1559   1.993   1_455  S
O133        C141   1.263       .  A
O134       Cr151   1.976       .  S
O134        C135   1.260       .  A
C135        O136   1.265       .  A
C135        C211   1.471       .  S
O136       Cr152   1.995       .  S
O137       Cr152   1.980       .  S
O137        C138   1.261       .  A
C138       O1547   1.264       .  A
C138        C607   1.477       .  S
O139       Cr153   1.995       .  S
O139       C1546   1.264   1_455  A
O140       Cr153   1.986       .  S
O140        C141   1.262       .  A
C141        C177   1.476       .  S
O142      Cr1559   1.975   1_455  S
O142        C150   1.260       .  A
O143       Cr151   1.995       .  S
O143        C144   1.263       .  A
C144        O145   1.260       .  A
C144        C221   1.477       .  S
O145       Cr152   1.979       .  S
O146       Cr152   1.995       .  S
O146        C147   1.264       .  A
C147       O1556   1.261       .  A
C147        C585   1.477       .  S
O148       Cr153   1.980       .  S
O148       C1555   1.261       .  A
O149       Cr153   1.996       .  S
O149        C150   1.265       .  A
C150        C255   1.470       .  S
Cr151      O1541   1.993       .  S
Cr151      O1550   1.975       .  S
Cr151       O154   1.770       .  S
Cr152       O154   1.766       .  S
Cr153      O1562   1.766   1_455  S
O154      Cr1561   1.766       .  S
O155       Cr173   1.973       .  S
O155        C163   1.260       .  A
O156       Cr173   1.999       .  S
O156        C157   1.266       .  A
C157        O158   1.261       .  A
C157        C199   1.475       .  S
O158       Cr174   1.978       .  S
O159       Cr174   2.009       .  S
O159        C160   1.265       .  A
C160        O161   1.259       .  A
C160        C287   1.481       .  S
O161       Cr175   1.971       .  S
O162       Cr175   1.997       .  S
O162        C163   1.265       .  A
C163        C233   1.468       .  S
O164       Cr173   2.003       .  S
O164        C172   1.264       .  A
O165       Cr173   1.981       .  S
O165        C166   1.261       .  A
C166        O167   1.265       .  A
C166        C189   1.474       .  S
O167       Cr174   1.998       .  S
O168       Cr174   1.972       .  S
O168        C169   1.260       .  A
C169        O170   1.265       .  A
C169        C265   1.474       .  S
O170       Cr175   1.997       .  S
O171       Cr175   1.973       .  S
O171        C172   1.259       .  A
C172        C243   1.476       .  S
Cr173       O176   1.771       .  S
Cr174       O176   1.767       .  S
Cr175       O176   1.764       .  S
C177        C178   1.400       .  A
C177        C182   1.401       .  A
C178        C179   1.390       .  A
C178        H191   1.084       .  S
C179        C180   1.413       .  A
C179        H192   1.074       .  S
C180        C186   1.427       .  A
C180        C181   1.422       .  A
C181        C183   1.400       .  A
C181        C182   1.407       .  A
C182        H193   1.084       .  S
C183        C184   1.392       .  A
C183        H194   1.084       .  S
C184        C185   1.400       .  A
C184        H195   1.083       .  S
C185        C186   1.422       .  A
C185        C190   1.407       .  A
C186        C187   1.414       .  A
C187        C188   1.391       .  A
C187        H196   1.074       .  S
C188        C189   1.398       .  A
C188        H197   1.084       .  S
C189        C190   1.401       .  A
C190        H198   1.083       .  S
C199        C200   1.400       .  A
C199        C204   1.401       .  A
C200        C201   1.390       .  A
C200        H213   1.083       .  S
C201        C202   1.413       .  A
C201        H214   1.076       .  S
C202        C208   1.425       .  A
C202        C203   1.422       .  A
C203        C205   1.400       .  A
C203        C204   1.405       .  A
C204        H215   1.084       .  S
C205        C206   1.390       .  A
C205        H216   1.084       .  S
C206        C207   1.400       .  A
C206        H217   1.084       .  S
C207        C208   1.423       .  A
C207        C212   1.405       .  A
C208        C209   1.414       .  A
C209        C210   1.390       .  A
C209        H218   1.076       .  S
C210        C211   1.398       .  A
C210        H219   1.084       .  S
C211        C212   1.400       .  A
C212        H220   1.084       .  S
C221        C222   1.401       .  A
C221        C226   1.401       .  A
C222        C223   1.393       .  A
C222        H235   1.083       .  S
C223        C224   1.413       .  A
C223        H236   1.077       .  S
C224        C225   1.422       .  A
C224        C934   1.426   1_545  A
C225        C226   1.403       .  A
C225        C931   1.399   1_545  A
C226        H237   1.084       .  S
C227        C228   1.389       .  A
C227        C929   1.399       .  A
C227        H238   1.084       .  S
C228        C229   1.399       .  A
C228        H239   1.084       .  S
C229        C230   1.423       .  A
C229        C234   1.403       .  A
C230        C231   1.415       .  A
C230        C928   1.426       .  A
C231        C232   1.393       .  A
C231        H944   1.077       .  S
C232        C233   1.398       .  A
C232        H241   1.084       .  S
C233        C234   1.398       .  A
C234        H242   1.085       .  S
H240        C935   1.077       .  S
C243        C244   1.400       .  A
C243        C248   1.401       .  A
C244        C245   1.394       .  A
C244        H257   1.083       .  S
C245        C246   1.414       .  A
C245        H962   1.077       .  S
C246        C247   1.422       .  A
C246        C956   1.427       .  A
C247        C249   1.399       .  A
C247        C248   1.402       .  A
C248        H259   1.085       .  S
C249        C954   1.388       .  A
C249        H260   1.084       .  S
C250        C251   1.399       .  A
C250        C953   1.388   1_545  A
C250        H261   1.084       .  S
C251        C252   1.422       .  A
C251        C256   1.400       .  A
C252        C253   1.416       .  A
C252        C950   1.427   1_545  A
C253        C254   1.395       .  A
C253        H262   1.077       .  S
C254        C255   1.398       .  A
C254        H263   1.083       .  S
C255        C256   1.400       .  A
C256        H264   1.085       .  S
H258        C949   1.077       .  S
C265        C266   1.399       .  A
C265        C270   1.401       .  A
C266        C267   1.394       .  A
C266        H279   1.083       .  S
C267        C268   1.416       .  A
C267        H280   1.077       .  S
C268        C274   1.426       .  A
C268        C269   1.421       .  A
C269        C271   1.399       .  A
C269        C270   1.400       .  A
C270        H281   1.084       .  S
C271        C272   1.388       .  A
C271        H282   1.084       .  S
C272        C273   1.398       .  A
C272        H283   1.084       .  S
C273        C274   1.423       .  A
C273        C278   1.404       .  A
C274        C275   1.412       .  A
C275        C276   1.391       .  A
C275        H284   1.077       .  S
C276        C277   1.402       .  A
C276        H285   1.083       .  S
C277        C278   1.400       .  A
C278        H286   1.084       .  S
C287        C288   1.400       .  A
C287        C292   1.404       .  A
C288        C289   1.393       .  A
C288        H301   1.083       .  S
C289        C290   1.415       .  A
C289        H302   1.076       .  S
C290        C296   1.428       .  A
C290        C291   1.421       .  A
C291        C293   1.401       .  A
C291        C292   1.407       .  A
C292        H303   1.084       .  S
C293        C294   1.392       .  A
C293        H304   1.084       .  S
C294        C295   1.400       .  A
C294        H305   1.084       .  S
C295        C296   1.423       .  A
C295        C300   1.410       .  A
C296        C297   1.411       .  A
C297        C298   1.390       .  A
C297        H306   1.076       .  S
C298        C299   1.402       .  A
C298        H307   1.083       .  S
C299        C300   1.403       .  A
C300        H308   1.084       .  S
C309        C310   1.400       .  A
C309        C314   1.401       .  A
C310        C311   1.397       .  A
C310        H323   1.083       .  S
C311        C312   1.415       .  A
C311        H324   1.077       .  S
C312        C318   1.430       .  A
C312        C313   1.422       .  A
C313        C315   1.399       .  A
C313        C314   1.404       .  A
C314        H325   1.085       .  S
C315        C316   1.389       .  A
C315        H326   1.084       .  S
C316        C317   1.400       .  A
C316        H327   1.084       .  S
C317        C318   1.422       .  A
C317        C322   1.404       .  A
C318        C319   1.415       .  A
C319        C320   1.397       .  A
C319        H328   1.077       .  S
C320        C321   1.401       .  A
C320        H329   1.083       .  S
C321        C322   1.403       .  A
C322        H330   1.084       .  S
C331        C332   1.401       .  A
C331        C336   1.403       .  A
C332        C333   1.392       .  A
C332        H345   1.083       .  S
C333        C334   1.413       .  A
C333        H346   1.077       .  S
C334        C340   1.428       .  A
C334        C335   1.422       .  A
C335        C337   1.400       .  A
C335        C336   1.408       .  A
C336        H347   1.084       .  S
C337        C338   1.392       .  A
C337        H348   1.084       .  S
C338        C339   1.400       .  A
C338        H349   1.084       .  S
C339        C340   1.423       .  A
C339        C344   1.408       .  A
C340        C341   1.414       .  A
C341        C342   1.391       .  A
C341        H350   1.077       .  S
C342        C343   1.398       .  A
C342        H351   1.084       .  S
C343        C344   1.401       .  A
C344        H352   1.085       .  S
C353        C354   1.400       .  A
C353        C358   1.399       .  A
C354        C355   1.398       .  A
C354        H367   1.083       .  S
C355        C356   1.416       .  A
C355        H368   1.078       .  S
C356        C357   1.423       .  A
C356       C1066   1.429       .  A
C357        C358   1.400       .  A
C357       C1063   1.398       .  A
C358        H369   1.085       .  S
C359        C360   1.386       .  A
C359       C1061   1.398   1_545  A
C359        H370   1.084       .  S
C360        C361   1.398       .  A
C360        H371   1.084       .  S
C361        C362   1.421       .  A
C361        C366   1.399       .  A
C362        C363   1.416       .  A
C362       C1060   1.429   1_545  A
C363        C364   1.399       .  A
C363       H1076   1.078       .  S
C364        C365   1.401       .  A
C364        H373   1.083       .  S
C365        C366   1.401       .  A
C366        H374   1.085       .  S
H372       C1067   1.078       .  S
C375        C376   1.400       .  A
C375        C380   1.401       .  A
C376        C377   1.394       .  A
C376        H389   1.084       .  S
C377        C378   1.415       .  A
C377       H1094   1.077       .  S
C378        C379   1.422       .  A
C378       C1088   1.428       .  A
C379        C381   1.399       .  A
C379        C380   1.405       .  A
C380        H391   1.084       .  S
C381        C382   1.390       .  A
C381        H392   1.084       .  S
C382       C1087   1.399       .  A
C382        H393   1.084       .  S
C383        C384   1.423       .  A
C383        C388   1.405       .  A
C383       C1086   1.399   1_545  A
C384        C385   1.413       .  A
C384       C1082   1.428   1_545  A
C385        C386   1.393       .  A
C385        H394   1.077       .  S
C386        C387   1.402       .  A
C386        H395   1.083       .  S
C387        C388   1.400       .  A
C388        H396   1.084       .  S
H390       C1081   1.077       .  S
C397        C398   1.403       .  A
C397        C402   1.403       .  A
C398        C399   1.396       .  A
C398        H411   1.083       .  S
C399        C400   1.413       .  A
C399        H412   1.077       .  S
C400        C401   1.424       .  A
C400       C1110   1.433   1_545  A
C401        C402   1.410       .  A
C401       C1107   1.400       .  A
C402        H413   1.084       .  S
C403        C404   1.391       .  A
C403       C1105   1.400       .  A
C403        H414   1.084       .  S
C404        C405   1.401       .  A
C404        H415   1.084       .  S
C405        C406   1.421       .  A
C405        C410   1.406       .  A
C406        C407   1.417       .  A
C406       C1104   1.433       .  A
C407        C408   1.400       .  A
C407       H1120   1.077       .  S
C408        C409   1.400       .  A
C408        H417   1.083       .  S
C409        C410   1.406       .  A
C410        H418   1.084       .  S
H416       C1111   1.077       .  S
C419        C420   1.400       .  A
C419        C424   1.402       .  A
C420        C421   1.397       .  A
C420        H433   1.083       .  S
C421        C422   1.416       .  A
C421        H434   1.077       .  S
C422        C428   1.429       .  A
C422        C423   1.421       .  A
C423        C425   1.399       .  A
C423        C424   1.402       .  A
C424        H435   1.084       .  S
C425        C426   1.388       .  A
C425        H436   1.084       .  S
C426        C427   1.398       .  A
C426        H437   1.084       .  S
C427        C428   1.424       .  A
C427        C432   1.404       .  A
C428        C429   1.413       .  A
C429        C430   1.394       .  A
C429        H438   1.077       .  S
C430        C431   1.402       .  A
C430        H439   1.083       .  S
C431        C432   1.400       .  A
C432        H440   1.085       .  S
C441        C442   1.399       .  A
C441        C446   1.406       .  A
C442        C443   1.395       .  A
C442        H455   1.083       .  S
C443        C444   1.416       .  A
C443        H456   1.076       .  S
C444        C450   1.429       .  A
C444        C445   1.420       .  A
C445        C447   1.401       .  A
C445        C446   1.405       .  A
C446        H457   1.084       .  S
C447        C448   1.392       .  A
C447        H458   1.084       .  S
C448        C449   1.400       .  A
C448        H459   1.084       .  S
C449        C450   1.424       .  A
C449        C454   1.410       .  A
C450        C451   1.411       .  A
C451        C452   1.391       .  A
C451        H460   1.076       .  S
C452        C453   1.402       .  A
C452        H461   1.083       .  S
C453        C454   1.404       .  A
C454        H462   1.084       .  S
C463        C464   1.402       .  A
C463        C468   1.403       .  A
C464        C465   1.395       .  A
C464        H477   1.083       .  S
C465        C466   1.414       .  A
C465        H478   1.077       .  S
C466        C472   1.432       .  A
C466        C467   1.423       .  A
C467        C469   1.400       .  A
C467        C468   1.411       .  A
C468        H479   1.084       .  S
C469        C470   1.393       .  A
C469        H480   1.084       .  S
C470        C471   1.401       .  A
C470        H481   1.084       .  S
C471        C472   1.423       .  A
C471        C476   1.410       .  A
C472        C473   1.416       .  A
C473        C474   1.396       .  A
C473        H482   1.077       .  S
C474        C475   1.398       .  A
C474        H483   1.084       .  S
C475        C476   1.401       .  A
C476        H484   1.085       .  S
C485        C486   1.401       .  A
C485        C490   1.400       .  A
C486        C487   1.392       .  A
C486        H499   1.083       .  S
C487        C488   1.412       .  A
C487       H1204   1.077       .  S
C488        C489   1.424       .  A
C488       C1198   1.428       .  A
C489        C491   1.399       .  A
C489        C490   1.405       .  A
C490        H501   1.084       .  S
C491        C492   1.389       .  A
C491        H502   1.084       .  S
C492       C1197   1.400       .  A
C492        H503   1.084       .  S
C493        C494   1.421       .  A
C493        C498   1.402       .  A
C493       C1196   1.400       .  A
C494        C495   1.416       .  A
C494       C1192   1.428   1_545  A
C495        C496   1.396       .  A
C495        H504   1.077       .  S
C496        C497   1.400       .  A
C496        H505   1.083       .  S
C497        C498   1.402       .  A
C498        H506   1.084       .  S
H500       C1191   1.077       .  S
C507        C508   1.401       .  A
C507        C512   1.401       .  A
C508        C509   1.402       .  A
C508        H521   1.083       .  S
C509        C510   1.417       .  A
C509        H522   1.078       .  S
C510        C511   1.423   1_545  A
C510       C1220   1.434   1_545  A
C511        C512   1.406   1_565  A
C511       C1217   1.399       .  A
C512        H523   1.085       .  S
C513        C514   1.390       .  A
C513       C1215   1.399       .  A
C513        H524   1.084       .  S
C514        C515   1.399       .  A
C514        H525   1.084       .  S
C515        C516   1.423       .  A
C515        C520   1.407       .  A
C516        C517   1.417       .  A
C516       C1214   1.434       .  A
C517        C518   1.402       .  A
C517       H1230   1.078       .  S
C518        C519   1.401       .  A
C518        H527   1.083       .  S
C519        C520   1.401       .  A
C520        H528   1.085       .  S
H526       C1221   1.078   1_545  S
C529        C530   1.402       .  A
C529        C534   1.403       .  A
C530        C531   1.398       .  A
C530        H543   1.083       .  S
C531        C532   1.415       .  A
C531        H544   1.078       .  S
C532        C538   1.431       .  A
C532        C533   1.422       .  A
C533        C535   1.399       .  A
C533        C534   1.404       .  A
C534        H545   1.084       .  S
C535        C536   1.389       .  A
C535        H546   1.084       .  S
C536        C537   1.399       .  A
C536        H547   1.084       .  S
C537        C538   1.422       .  A
C537        C542   1.404       .  A
C538        C539   1.416       .  A
C539        C540   1.399       .  A
C539        H548   1.078       .  S
C540        C541   1.400       .  A
C540        H549   1.083       .  S
C541        C542   1.401       .  A
C542        H550   1.085       .  S
C551        C552   1.400       .  A
C551        C556   1.403       .  A
C552        C553   1.400       .  A
C552        H565   1.083       .  S
C553        C554   1.417       .  A
C553        H566   1.078       .  S
C554        C560   1.432       .  A
C554        C555   1.421       .  A
C555        C557   1.400       .  A
C555        C556   1.405       .  A
C556        H567   1.085       .  S
C557        C558   1.390       .  A
C557        H568   1.084       .  S
C558        C559   1.400       .  A
C558        H569   1.084       .  S
C559        C560   1.423       .  A
C559        C564   1.407       .  A
C560        C561   1.414       .  A
C561        C562   1.398       .  A
C561        H570   1.078       .  S
C562        C563   1.402       .  A
C562        H571   1.083       .  S
C563        C564   1.403       .  A
C564        H572   1.084       .  S
C573        C574   1.399       .  A
C573       C1986   1.403       .  A
C574        C575   1.391       .  A
C574        H587   1.083       .  S
C575        C576   1.413       .  A
C575       H1292   1.077       .  S
C576       C1286   1.425   1_556  A
C576       C1985   1.421       .  A
C577        C579   1.400   1_556  A
C577        C578   1.405       .  A
C577       C1984   1.421   1_455  A
C578       C1981   1.403       .  A
C578        H589   1.084       .  S
C579        C580   1.391       .  A
C579        H590   1.084       .  S
C580       C1285   1.400       .  A
C580        H591   1.084       .  S
C581        C586   1.406       .  A
C581       C1284   1.400   1_545  A
C581       C1990   1.422   1_455  A
C582        C583   1.412       .  A
C582       C1280   1.425   1_544  A
C582       C1989   1.422       .  A
C583        C584   1.389       .  A
C583        H592   1.077       .  S
C584        C585   1.401       .  A
C584        H593   1.083       .  S
C585       C1994   1.403       .  A
C586       C1993   1.403   1_455  A
C586        H594   1.084       .  S
H588       C1279   1.077       .  S
C595        C600   1.403       .  A
C595       C2004   1.399       .  A
C596        C597   1.393       .  A
C596       C2003   1.399       .  A
C596        H609   1.083       .  S
C597        C598   1.415       .  A
C597        H610   1.077       .  S
C598        C604   1.426   1_556  A
C598       C2007   1.420   1_455  A
C599        C601   1.400   1_556  A
C599        C600   1.403       .  A
C599       C2006   1.420       .  A
C600        H611   1.084       .  S
C601        C602   1.390       .  A
C601        H612   1.084       .  S
C602        C603   1.399       .  A
C602        H613   1.084       .  S
C603        C608   1.406       .  A
C603       C2012   1.423       .  A
C604        C605   1.412       .  A
C604       C2011   1.423   1_455  A
C605        C606   1.390       .  A
C605        H614   1.077       .  S
C606       C2015   1.401   1_455  A
C606        H615   1.083       .  S
C607        C608   1.402       .  A
C607       C2014   1.401       .  A
C608        H616   1.084       .  S
C617        C618   1.401       .  A
C617        C622   1.401       .  A
C618        C619   1.400       .  A
C618        H631   1.083       .  S
C619        C620   1.416       .  A
C619        H632   1.078       .  S
C620        C626   1.432       .  A
C620        C621   1.423       .  A
C621        C623   1.399       .  A
C621        C622   1.403       .  A
C622        H633   1.085       .  S
C623        C624   1.388       .  A
C623        H634   1.084       .  S
C624        C625   1.399       .  A
C624        H635   1.084       .  S
C625        C626   1.422       .  A
C625        C630   1.402       .  A
C626        C627   1.417       .  A
C627        C628   1.400       .  A
C627        H636   1.078       .  S
C628        C629   1.401       .  A
C628        H637   1.083       .  S
C629        C630   1.401       .  A
C630        H638   1.085       .  S
C639        C640   1.402       .  A
C639        C644   1.402       .  A
C640        C641   1.400       .  A
C640        H653   1.083       .  S
C641        C642   1.416       .  A
C641        H654   1.078       .  S
C642        C648   1.432       .  A
C642        C643   1.422       .  A
C643        C645   1.399       .  A
C643        C644   1.405       .  A
C644        H655   1.084       .  S
C645        C646   1.389       .  A
C645        H656   1.084       .  S
C646        C647   1.399       .  A
C646        H657   1.084       .  S
C647        C648   1.423       .  A
C647        C652   1.406       .  A
C648        C649   1.415       .  A
C649        C650   1.399       .  A
C649        H658   1.078       .  S
C650        C651   1.402       .  A
C650        H659   1.083       .  S
C651        C652   1.401       .  A
C652        H660   1.085       .  S
C661        C662   1.401       .  A
C661        C666   1.403       .  A
C662        C663   1.398       .  A
C662        H675   1.083       .  S
C663        C664   1.415       .  A
C663       H1380   1.077       .  S
C664        C665   1.422       .  A
C664       C1374   1.430   1_545  A
C665        C667   1.400       .  A
C665        C666   1.405       .  A
C666        H677   1.084       .  S
C667        C668   1.390   1_545  A
C667        H678   1.084       .  S
C668       C1373   1.399       .  A
C668        H679   1.084       .  S
C669        C670   1.422       .  A
C669        C674   1.404       .  A
C669       C1372   1.399       .  A
C670        C671   1.415       .  A
C670       C1368   1.430       .  A
C671        C672   1.397       .  A
C671        H680   1.078       .  S
C672        C673   1.401       .  A
C672        H681   1.083       .  S
C673        C674   1.402       .  A
C674        H682   1.085       .  S
H676       C1367   1.077       .  S
C683        C684   1.400       .  A
C683        C688   1.400       .  A
C684        C685   1.400       .  A
C684        H697   1.084       .  S
C685        C686   1.417       .  A
C685       H1402   1.078       .  S
C686        C687   1.422       .  A
C686       C1396   1.431       .  A
C687        C689   1.399       .  A
C687        C688   1.403       .  A
C688        H699   1.085       .  S
C689        C690   1.389       .  A
C689        H700   1.084       .  S
C690       C1395   1.399       .  A
C690        H701   1.084       .  S
C691        C692   1.423   1_565  A
C691        C696   1.405   1_565  A
C691       C1394   1.399       .  A
C692        C693   1.414       .  A
C692       C1390   1.431   1_545  A
C693        C694   1.398       .  A
C693        H702   1.078       .  S
C694        C695   1.403       .  A
C694        H703   1.083       .  S
C695        C696   1.403       .  A
C696        H704   1.084       .  S
H698       C1389   1.078   1_545  S
O705       Cr723   1.978       .  S
O705        C713   1.260       .  A
O706      Cr2131   2.012       .  S
O706        C707   1.267       .  A
C707        O708   1.260       .  A
C707       C1387   1.476       .  S
O708       Cr724   1.982       .  S
O709       Cr724   2.008       .  S
O709       C2118   1.265       .  A
C710       O2117   1.265       .  A
C710        O711   1.259       .  A
C710       C1277   1.477       .  S
O711       Cr725   1.967       .  S
O712       Cr725   2.005       .  S
O712        C713   1.266       .  A
C713       C1377   1.480       .  S
O714       Cr723   2.020       .  S
O714        C722   1.269       .  A
O715      Cr2131   1.980       .  S
O715        C716   1.262       .  A
C716        O717   1.268       .  A
C716       C1321   1.481       .  S
O717       Cr724   2.008       .  S
O718       Cr724   1.974       .  S
O718       C2127   1.261       .  A
C719       O2126   1.261       .  A
C719        O720   1.265       .  A
C719       C1299   1.477       .  S
O720       Cr725   2.003       .  S
O721       Cr725   1.974       .  S
O721        C722   1.259       .  A
C722       C1355   1.482       .  S
Cr723      O2114   2.012       .  S
Cr723      O2123   1.980       .  S
Cr723       O726   1.770       .  S
Cr724      O2134   1.768       .  S
Cr725       O726   1.767       .  S
O726      Cr2132   1.768       .  S
O727       Cr745   2.009       .  S
O727        C735   1.266       .  A
O728       Cr745   1.977       .  S
O728        C729   1.262       .  A
C729        O730   1.269       .  A
C729       C1343   1.484       .  S
O730       Cr746   2.013       .  S
O731       Cr746   1.979       .  S
O731        C732   1.261       .  A
C732        O733   1.267       .  A
C732       C1267   1.486       .  S
O733       Cr747   2.012       .  S
O734       Cr747   1.982       .  S
O734        C735   1.261       .  A
C735       C1365   1.483       .  S
O736       Cr745   1.977       .  S
O736        C744   1.261       .  A
O737       Cr745   2.004       .  S
O737        C738   1.264       .  A
C738        O739   1.260       .  A
C738       C1333   1.482       .  S
O739       Cr746   1.983       .  S
O740       Cr746   2.007       .  S
O740        C741   1.267       .  A
C741        O742   1.262       .  A
C741       C1233   1.484       .  S
O742       Cr747   1.980       .  S
O743       Cr747   2.015       .  S
O743        C744   1.268       .  A
C744       C1399   1.485       .  S
Cr745       O748   1.772       .  S
Cr746       O748   1.770       .  S
Cr747       O748   1.772       .  S
O749       Cr767   1.994       .  S
O749        C757   1.264       .  A
O750       Cr767   1.987       .  S
O750        C751   1.262       .  A
C751        O752   1.267       .  A
C751       C1223   1.481       .  S
O752       Cr768   2.016       .  S
O753       Cr768   1.992       .  S
O753        C754   1.265       .  A
C754        O755   1.265       .  A
C754       C1113   1.486       .  S
O755       Cr769   2.001       .  S
O756       Cr769   1.983       .  S
O756        C757   1.262       .  A
C757       C1189   1.477       .  S
O758       Cr767   1.994       .  S
O758        C766   1.263       .  A
O759       Cr767   1.995       .  S
O759        C760   1.264       .  A
C760        O761   1.261       .  A
C760       C1157   1.483       .  S
O761       Cr768   1.989       .  S
O762       Cr768   2.001       .  S
O762        C763   1.266       .  A
C763        O764   1.263       .  A
C763       C1123   1.480       .  S
O764       Cr769   1.980       .  S
O765       Cr769   2.006       .  S
O765        C766   1.266       .  A
C766       C1167   1.485       .  S
Cr767       O770   1.768       .  S
Cr768       O770   1.774       .  S
Cr769       O770   1.773       .  S
O771       Cr789   1.998       .  S
O771        C779   1.263       .  A
O772       Cr789   1.990       .  S
O772        C773   1.262       .  A
C773        O774   1.267       .  A
C773       C1179   1.475       .  S
O774       Cr790   2.014       .  S
O775       Cr790   1.988       .  S
O775        C776   1.263       .  A
C776        O777   1.265       .  A
C776       C1255   1.483       .  S
O777       Cr791   2.000       .  S
O778       Cr791   1.977       .  S
O778        C779   1.259       .  A
C779       C1201   1.478       .  S
O780      Cr2197   1.988       .  S
O780        C788   1.263       .  A
O781      Cr2197   1.999       .  S
O781        C782   1.263       .  A
C782        O783   1.262       .  A
C782       C1145   1.482       .  S
O783      Cr2198   1.985       .  S
O784      Cr2198   2.005       .  S
O784        C785   1.266       .  A
C785        O786   1.261       .  A
C785       C1245   1.479       .  S
O786      Cr2199   1.978       .  S
O787      Cr2199   2.017       .  S
O787        C788   1.268       .  A
C788       C1211   1.482       .  S
Cr789      O2188   1.988       .  S
Cr789      O2189   1.999       .  S
Cr789       O792   1.770       .  S
Cr790      O2191   1.985       .  S
Cr790      O2192   2.005       .  S
Cr790       O792   1.772       .  S
Cr791      O2194   1.978       .  S
Cr791      O2195   2.017       .  S
Cr791       O792   1.772       .  S
O793       Cr811   1.976       .  S
O793        C801   1.261       .  A
O794       Cr811   1.998       .  S
O794        C795   1.264       .  A
C795        O796   1.261       .  A
C795       C1035   1.482       .  S
O796       Cr812   1.988       .  S
O797       Cr812   1.992       .  S
O797        C798   1.262       .  A
C798        O799   1.261       .  A
C798       C1135   1.477       .  S
O799       Cr813   1.981       .  S
O800       Cr813   2.007       .  S
O800        C801   1.267       .  A
C801       C1013   1.478       .  S
O802       Cr811   1.995       .  S
O802        C810   1.262       .  A
O803       Cr811   1.983       .  S
O803        C804   1.262       .  A
C804        O805   1.265       .  A
C804       C1069   1.479       .  S
O805       Cr812   1.997       .  S
O806       Cr812   1.989       .  S
O806        C807   1.264       .  A
C807        O808   1.267       .  A
C807       C1101   1.487       .  S
O808       Cr813   2.004       .  S
O809       Cr813   1.984       .  S
O809        C810   1.261       .  A
C810       C1091   1.478       .  S
Cr811       O814   1.774       .  S
Cr812       O814   1.772       .  S
Cr813       O814   1.769       .  S
O815      Cr2241   2.006       .  S
O815        C823   1.266       .  A
O816      Cr2241   1.978       .  S
O816        C817   1.261       .  A
C817        O818   1.264       .  A
C817       C1079   1.477       .  S
O818      Cr2242   2.000   1_455  S
O819      Cr2242   1.980   1_455  S
O819        C820   1.262       .  A
C820        O821   1.263       .  A
C820        C981   1.476       .  S
O821      Cr2243   1.993   1_455  S
O822      Cr2243   1.981   1_455  S
O822        C823   1.262       .  A
C823       C1025   1.482       .  S
O824       Cr833   1.983       .  S
O824        C832   1.261       .  A
O825       Cr833   2.004       .  S
O825        C826   1.266       .  A
C826        O827   1.260       .  A
C826       C1057   1.475       .  S
O827       Cr834   1.978       .  S
O828       Cr834   1.996       .  S
O828        C829   1.265       .  A
C829        O830   1.263       .  A
C829       C1003   1.482       .  S
O830       Cr835   1.989       .  S
O831       Cr835   1.994       .  S
O831        C832   1.263       .  A
C832       C1047   1.473       .  S
Cr833      O2223   2.006       .  S
Cr833      O2224   1.978       .  S
Cr833       O836   1.775       .  S
Cr834      O2226   2.000       .  S
Cr834      O2227   1.980       .  S
Cr834       O836   1.769       .  S
Cr835      O2229   1.993       .  S
Cr835      O2230   1.981       .  S
Cr835       O836   1.769       .  S
O837      Cr2263   1.993   1_455  S
O837        C845   1.263       .  A
O838       Cr855   1.976       .  S
O838        C839   1.260       .  A
C839        O840   1.265       .  A
C839        C915   1.471       .  S
O840       Cr856   1.995       .  S
O841       Cr856   1.980       .  S
O841        C842   1.261       .  A
C842       O2251   1.264       .  A
C842       C1311   1.477       .  S
O843       Cr857   1.995       .  S
O843       C2250   1.264   1_455  A
O844       Cr857   1.986       .  S
O844        C845   1.262       .  A
C845        C881   1.476       .  S
O846      Cr2263   1.975   1_455  S
O846        C854   1.260       .  A
O847       Cr855   1.995       .  S
O847        C848   1.263       .  A
C848        O849   1.260       .  A
C848        C925   1.477       .  S
O849       Cr856   1.979       .  S
O850       Cr856   1.995       .  S
O850        C851   1.264       .  A
C851       O2260   1.261       .  A
C851       C1289   1.477       .  S
O852       Cr857   1.980       .  S
O852       C2259   1.261       .  A
O853       Cr857   1.996       .  S
O853        C854   1.265       .  A
C854        C959   1.470       .  S
Cr855      O2245   1.993       .  S
Cr855      O2254   1.975       .  S
Cr855       O858   1.770       .  S
Cr856       O858   1.766       .  S
Cr857      O2266   1.766   1_455  S
O858      Cr2265   1.766       .  S
O859       Cr877   1.973       .  S
O859        C867   1.260       .  A
O860       Cr877   1.999       .  S
O860        C861   1.266       .  A
C861        O862   1.261       .  A
C861        C903   1.475       .  S
O862       Cr878   1.978       .  S
O863       Cr878   2.009       .  S
O863        C864   1.265       .  A
C864        O865   1.259       .  A
C864        C991   1.481       .  S
O865       Cr879   1.971       .  S
O866       Cr879   1.997       .  S
O866        C867   1.265       .  A
C867        C937   1.468       .  S
O868       Cr877   2.003       .  S
O868        C876   1.264       .  A
O869       Cr877   1.981       .  S
O869        C870   1.261       .  A
C870        O871   1.265       .  A
C870        C893   1.474       .  S
O871       Cr878   1.998       .  S
O872       Cr878   1.972       .  S
O872        C873   1.260       .  A
C873        O874   1.265       .  A
C873        C969   1.474       .  S
O874       Cr879   1.997       .  S
O875       Cr879   1.973       .  S
O875        C876   1.259       .  A
C876        C947   1.476       .  S
Cr877       O880   1.771       .  S
Cr878       O880   1.767       .  S
Cr879       O880   1.764       .  S
C881        C882   1.400       .  A
C881        C886   1.401       .  A
C882        C883   1.390       .  A
C882        H895   1.084       .  S
C883        C884   1.413       .  A
C883        H896   1.074       .  S
C884        C890   1.427       .  A
C884        C885   1.422       .  A
C885        C887   1.400       .  A
C885        C886   1.407       .  A
C886        H897   1.084       .  S
C887        C888   1.392       .  A
C887        H898   1.084       .  S
C888        C889   1.400       .  A
C888        H899   1.083       .  S
C889        C890   1.422       .  A
C889        C894   1.407       .  A
C890        C891   1.414       .  A
C891        C892   1.391       .  A
C891        H900   1.074       .  S
C892        C893   1.398       .  A
C892        H901   1.084       .  S
C893        C894   1.401       .  A
C894        H902   1.083       .  S
C903        C904   1.400       .  A
C903        C908   1.401       .  A
C904        C905   1.390       .  A
C904        H917   1.083       .  S
C905        C906   1.413       .  A
C905        H918   1.076       .  S
C906        C912   1.425       .  A
C906        C907   1.422       .  A
C907        C909   1.400       .  A
C907        C908   1.405       .  A
C908        H919   1.084       .  S
C909        C910   1.390       .  A
C909        H920   1.084       .  S
C910        C911   1.400       .  A
C910        H921   1.084       .  S
C911        C912   1.423       .  A
C911        C916   1.405       .  A
C912        C913   1.414       .  A
C913        C914   1.390       .  A
C913        H922   1.076       .  S
C914        C915   1.398       .  A
C914        H923   1.084       .  S
C915        C916   1.400       .  A
C916        H924   1.085       .  S
C925        C926   1.401       .  A
C925        C930   1.401       .  A
C926        C927   1.393       .  A
C926        H939   1.083       .  S
C927        C928   1.413       .  A
C927        H940   1.077       .  S
C928        C929   1.422       .  A
C929        C930   1.403       .  A
C930        H941   1.084       .  S
C931        C932   1.389       .  A
C931        H942   1.084       .  S
C932        C933   1.399       .  A
C932        H943   1.084       .  S
C933        C934   1.423       .  A
C933        C938   1.403       .  A
C934        C935   1.415       .  A
C935        C936   1.393       .  A
C936        C937   1.398       .  A
C936        H945   1.084       .  S
C937        C938   1.398       .  A
C938        H946   1.085       .  S
C947        C948   1.400       .  A
C947        C952   1.401       .  A
C948        C949   1.394       .  A
C948        H961   1.083       .  S
C949        C950   1.414       .  A
C950        C951   1.422       .  A
C951        C953   1.399       .  A
C951        C952   1.402       .  A
C952        H963   1.085       .  S
C953        H964   1.084       .  S
C954        C955   1.399       .  A
C954        H965   1.084       .  S
C955        C956   1.422       .  A
C955        C960   1.400       .  A
C956        C957   1.416       .  A
C957        C958   1.395       .  A
C957        H966   1.077       .  S
C958        C959   1.398       .  A
C958        H967   1.083       .  S
C959        C960   1.400       .  A
C960        H968   1.085       .  S
C969        C970   1.399       .  A
C969        C974   1.401       .  A
C970        C971   1.394       .  A
C970        H983   1.083       .  S
C971        C972   1.416       .  A
C971        H984   1.077       .  S
C972        C978   1.426       .  A
C972        C973   1.421       .  A
C973        C975   1.399       .  A
C973        C974   1.400       .  A
C974        H985   1.084       .  S
C975        C976   1.388       .  A
C975        H986   1.084       .  S
C976        C977   1.398       .  A
C976        H987   1.084       .  S
C977        C978   1.423       .  A
C977        C982   1.404       .  A
C978        C979   1.412       .  A
C979        C980   1.391       .  A
C979        H988   1.077       .  S
C980        C981   1.402       .  A
C980        H989   1.083       .  S
C981        C982   1.400       .  A
C982        H990   1.084       .  S
C991        C992   1.400       .  A
C991        C996   1.404       .  A
C992        C993   1.393       .  A
C992       H1005   1.083       .  S
C993        C994   1.415       .  A
C993       H1006   1.076       .  S
C994       C1000   1.428       .  A
C994        C995   1.421       .  A
C995        C997   1.401       .  A
C995        C996   1.407       .  A
C996       H1007   1.084       .  S
C997        C998   1.392       .  A
C997       H1008   1.084       .  S
C998        C999   1.400       .  A
C998       H1009   1.084       .  S
C999       C1000   1.423       .  A
C999       C1004   1.410       .  A
C1000      C1001   1.411       .  A
C1001      C1002   1.390       .  A
C1001      H1010   1.076       .  S
C1002      C1003   1.402       .  A
C1002      H1011   1.083       .  S
C1003      C1004   1.403       .  A
C1004      H1012   1.084       .  S
C1013      C1014   1.400       .  A
C1013      C1018   1.401       .  A
C1014      C1015   1.397       .  A
C1014      H1027   1.083       .  S
C1015      C1016   1.415       .  A
C1015      H1028   1.077       .  S
C1016      C1022   1.430       .  A
C1016      C1017   1.422       .  A
C1017      C1019   1.399       .  A
C1017      C1018   1.404       .  A
C1018      H1029   1.085       .  S
C1019      C1020   1.389       .  A
C1019      H1030   1.084       .  S
C1020      C1021   1.400       .  A
C1020      H1031   1.084       .  S
C1021      C1022   1.422       .  A
C1021      C1026   1.404       .  A
C1022      C1023   1.415       .  A
C1023      C1024   1.397       .  A
C1023      H1032   1.077       .  S
C1024      C1025   1.401       .  A
C1024      H1033   1.083       .  S
C1025      C1026   1.403       .  A
C1026      H1034   1.084       .  S
C1035      C1036   1.401       .  A
C1035      C1040   1.403       .  A
C1036      C1037   1.392       .  A
C1036      H1049   1.083       .  S
C1037      C1038   1.413       .  A
C1037      H1050   1.077       .  S
C1038      C1044   1.428       .  A
C1038      C1039   1.422       .  A
C1039      C1041   1.400       .  A
C1039      C1040   1.408       .  A
C1040      H1051   1.084       .  S
C1041      C1042   1.392       .  A
C1041      H1052   1.084       .  S
C1042      C1043   1.400       .  A
C1042      H1053   1.084       .  S
C1043      C1044   1.423       .  A
C1043      C1048   1.408       .  A
C1044      C1045   1.414       .  A
C1045      C1046   1.391       .  A
C1045      H1054   1.077       .  S
C1046      C1047   1.398       .  A
C1046      H1055   1.084       .  S
C1047      C1048   1.401       .  A
C1048      H1056   1.085       .  S
C1057      C1058   1.400       .  A
C1057      C1062   1.399       .  A
C1058      C1059   1.398       .  A
C1058      H1071   1.083       .  S
C1059      C1060   1.416       .  A
C1059      H1072   1.078       .  S
C1060      C1061   1.423       .  A
C1061      C1062   1.400       .  A
C1062      H1073   1.085       .  S
C1063      C1064   1.386       .  A
C1063      H1074   1.084       .  S
C1064      C1065   1.398       .  A
C1064      H1075   1.084       .  S
C1065      C1066   1.421       .  A
C1065      C1070   1.399       .  A
C1066      C1067   1.416       .  A
C1067      C1068   1.399       .  A
C1068      C1069   1.401       .  A
C1068      H1077   1.083       .  S
C1069      C1070   1.401       .  A
C1070      H1078   1.085       .  S
C1079      C1080   1.400       .  A
C1079      C1084   1.401       .  A
C1080      C1081   1.394   1_565  A
C1080      H1093   1.084       .  S
C1081      C1082   1.415   1_545  A
C1082      C1083   1.422       .  A
C1083      C1085   1.399       .  A
C1083      C1084   1.405       .  A
C1084      H1095   1.084       .  S
C1085      C1086   1.390       .  A
C1085      H1096   1.084       .  S
C1086      H1097   1.084       .  S
C1087      C1088   1.423       .  A
C1087      C1092   1.405       .  A
C1088      C1089   1.413       .  A
C1089      C1090   1.393       .  A
C1089      H1098   1.077       .  S
C1090      C1091   1.402       .  A
C1090      H1099   1.083       .  S
C1091      C1092   1.400       .  A
C1092      H1100   1.084       .  S
C1101      C1102   1.403       .  A
C1101      C1106   1.403       .  A
C1102      C1103   1.396       .  A
C1102      H1115   1.083       .  S
C1103      C1104   1.413       .  A
C1103      H1116   1.077       .  S
C1104      C1105   1.424       .  A
C1105      C1106   1.410       .  A
C1106      H1117   1.084       .  S
C1107      C1108   1.391   1_545  A
C1107      H1118   1.084       .  S
C1108      C1109   1.401       .  A
C1108      H1119   1.084       .  S
C1109      C1110   1.421       .  A
C1109      C1114   1.406       .  A
C1110      C1111   1.417       .  A
C1111      C1112   1.400       .  A
C1112      C1113   1.400       .  A
C1112      H1121   1.083       .  S
C1113      C1114   1.406       .  A
C1114      H1122   1.084       .  S
C1123      C1124   1.400       .  A
C1123      C1128   1.402       .  A
C1124      C1125   1.397       .  A
C1124      H1137   1.083       .  S
C1125      C1126   1.416       .  A
C1125      H1138   1.077       .  S
C1126      C1132   1.429       .  A
C1126      C1127   1.421       .  A
C1127      C1129   1.399       .  A
C1127      C1128   1.402       .  A
C1128      H1139   1.084       .  S
C1129      C1130   1.388       .  A
C1129      H1140   1.084       .  S
C1130      C1131   1.398       .  A
C1130      H1141   1.084       .  S
C1131      C1132   1.424       .  A
C1131      C1136   1.404       .  A
C1132      C1133   1.413       .  A
C1133      C1134   1.394       .  A
C1133      H1142   1.077       .  S
C1134      C1135   1.402       .  A
C1134      H1143   1.083       .  S
C1135      C1136   1.400       .  A
C1136      H1144   1.085       .  S
C1145      C1146   1.399       .  A
C1145      C1150   1.406       .  A
C1146      C1147   1.395       .  A
C1146      H1159   1.083       .  S
C1147      C1148   1.416       .  A
C1147      H1160   1.076       .  S
C1148      C1154   1.429       .  A
C1148      C1149   1.420       .  A
C1149      C1151   1.401       .  A
C1149      C1150   1.405       .  A
C1150      H1161   1.084       .  S
C1151      C1152   1.392       .  A
C1151      H1162   1.084       .  S
C1152      C1153   1.400       .  A
C1152      H1163   1.084       .  S
C1153      C1154   1.424       .  A
C1153      C1158   1.410       .  A
C1154      C1155   1.411       .  A
C1155      C1156   1.391       .  A
C1155      H1164   1.076       .  S
C1156      C1157   1.402       .  A
C1156      H1165   1.083       .  S
C1157      C1158   1.404       .  A
C1158      H1166   1.084       .  S
C1167      C1168   1.402       .  A
C1167      C1172   1.403       .  A
C1168      C1169   1.395       .  A
C1168      H1181   1.083       .  S
C1169      C1170   1.414       .  A
C1169      H1182   1.077       .  S
C1170      C1176   1.432       .  A
C1170      C1171   1.423       .  A
C1171      C1173   1.400       .  A
C1171      C1172   1.411       .  A
C1172      H1183   1.084       .  S
C1173      C1174   1.393       .  A
C1173      H1184   1.084       .  S
C1174      C1175   1.401       .  A
C1174      H1185   1.084       .  S
C1175      C1176   1.423       .  A
C1175      C1180   1.410       .  A
C1176      C1177   1.416       .  A
C1177      C1178   1.396       .  A
C1177      H1186   1.077       .  S
C1178      C1179   1.398       .  A
C1178      H1187   1.084       .  S
C1179      C1180   1.401       .  A
C1180      H1188   1.085       .  S
C1189      C1190   1.401       .  A
C1189      C1194   1.400       .  A
C1190      C1191   1.392       .  A
C1190      H1203   1.083       .  S
C1191      C1192   1.412       .  A
C1192      C1193   1.424       .  A
C1193      C1195   1.399   1_565  A
C1193      C1194   1.405       .  A
C1194      H1205   1.084       .  S
C1195      C1196   1.389       .  A
C1195      H1206   1.084   1_545  S
C1196      H1207   1.084       .  S
C1197      C1198   1.421       .  A
C1197      C1202   1.402       .  A
C1198      C1199   1.416       .  A
C1199      C1200   1.396       .  A
C1199      H1208   1.077       .  S
C1200      C1201   1.400       .  A
C1200      H1209   1.083       .  S
C1201      C1202   1.402       .  A
C1202      H1210   1.084       .  S
C1211      C1212   1.401       .  A
C1211      C1216   1.401       .  A
C1212      C1213   1.402       .  A
C1212      H1225   1.083       .  S
C1213      C1214   1.417       .  A
C1213      H1226   1.078       .  S
C1214      C1215   1.423       .  A
C1215      C1216   1.406       .  A
C1216      H1227   1.085       .  S
C1217      C1218   1.390       .  A
C1217      H1228   1.084       .  S
C1218      C1219   1.399       .  A
C1218      H1229   1.084       .  S
C1219      C1220   1.423       .  A
C1219      C1224   1.407       .  A
C1220      C1221   1.417       .  A
C1221      C1222   1.402       .  A
C1222      C1223   1.401       .  A
C1222      H1231   1.083       .  S
C1223      C1224   1.401       .  A
C1224      H1232   1.085       .  S
C1233      C1234   1.402       .  A
C1233      C1238   1.403       .  A
C1234      C1235   1.398       .  A
C1234      H1247   1.083       .  S
C1235      C1236   1.415       .  A
C1235      H1248   1.078       .  S
C1236      C1242   1.431       .  A
C1236      C1237   1.422       .  A
C1237      C1239   1.399       .  A
C1237      C1238   1.404       .  A
C1238      H1249   1.084       .  S
C1239      C1240   1.389       .  A
C1239      H1250   1.084       .  S
C1240      C1241   1.399       .  A
C1240      H1251   1.084       .  S
C1241      C1242   1.422       .  A
C1241      C1246   1.404       .  A
C1242      C1243   1.416       .  A
C1243      C1244   1.399       .  A
C1243      H1252   1.078       .  S
C1244      C1245   1.400       .  A
C1244      H1253   1.083       .  S
C1245      C1246   1.401       .  A
C1246      H1254   1.085       .  S
C1255      C1256   1.400       .  A
C1255      C1260   1.403       .  A
C1256      C1257   1.400       .  A
C1256      H1269   1.083       .  S
C1257      C1258   1.417       .  A
C1257      H1270   1.078       .  S
C1258      C1264   1.432       .  A
C1258      C1259   1.421       .  A
C1259      C1261   1.400       .  A
C1259      C1260   1.405       .  A
C1260      H1271   1.085       .  S
C1261      C1262   1.390       .  A
C1261      H1272   1.084       .  S
C1262      C1263   1.400       .  A
C1262      H1273   1.084       .  S
C1263      C1264   1.423       .  A
C1263      C1268   1.407       .  A
C1264      C1265   1.414       .  A
C1265      C1266   1.398       .  A
C1265      H1274   1.078       .  S
C1266      C1267   1.402       .  A
C1266      H1275   1.083       .  S
C1267      C1268   1.403       .  A
C1268      H1276   1.084       .  S
C1277      C1278   1.399       .  A
C1277      C2690   1.403       .  A
C1278      C1279   1.391       .  A
C1278      H1291   1.083       .  S
C1279      C1280   1.413       .  A
C1280      C2689   1.421       .  A
C1281      C2688   1.421   1_455  A
C1281      C1283   1.400   1_556  A
C1281      C1282   1.405       .  A
C1282      C2685   1.403       .  A
C1282      H1293   1.084       .  S
C1283      C1284   1.391       .  A
C1283      H1294   1.084       .  S
C1284      H1295   1.084       .  S
C1285      C2694   1.422   1_455  A
C1285      C1290   1.406       .  A
C1286      C2693   1.422       .  A
C1286      C1287   1.412       .  A
C1287      C1288   1.389       .  A
C1287      H1296   1.077       .  S
C1288      C1289   1.401       .  A
C1288      H1297   1.083       .  S
C1289      C2698   1.403       .  A
C1290      C2697   1.403   1_455  A
C1290      H1298   1.084       .  S
C1299      C2708   1.399       .  A
C1299      C1304   1.403       .  A
C1300      C2707   1.399       .  A
C1300      C1301   1.393       .  A
C1300      H1313   1.083       .  S
C1301      C1302   1.415       .  A
C1301      H1314   1.077       .  S
C1302      C1308   1.426   1_556  A
C1302      C2711   1.420   1_455  A
C1303      C2710   1.420       .  A
C1303      C1305   1.400   1_556  A
C1303      C1304   1.403       .  A
C1304      H1315   1.084       .  S
C1305      C1306   1.390       .  A
C1305      H1316   1.084       .  S
C1306      C1307   1.399       .  A
C1306      H1317   1.084       .  S
C1307      C2716   1.423       .  A
C1307      C1312   1.406       .  A
C1308      C2715   1.423   1_455  A
C1308      C1309   1.412       .  A
C1309      C1310   1.390       .  A
C1309      H1318   1.077       .  S
C1310      C2719   1.401   1_455  A
C1310      H1319   1.083       .  S
C1311      C2718   1.401       .  A
C1311      C1312   1.402       .  A
C1312      H1320   1.084       .  S
C1321      C1322   1.401       .  A
C1321      C1326   1.401       .  A
C1322      C1323   1.400       .  A
C1322      H1335   1.083       .  S
C1323      C1324   1.416       .  A
C1323      H1336   1.077       .  S
C1324      C1330   1.432       .  A
C1324      C1325   1.423       .  A
C1325      C1327   1.399       .  A
C1325      C1326   1.403       .  A
C1326      H1337   1.085       .  S
C1327      C1328   1.388       .  A
C1327      H1338   1.084       .  S
C1328      C1329   1.399       .  A
C1328      H1339   1.084       .  S
C1329      C1330   1.422       .  A
C1329      C1334   1.402       .  A
C1330      C1331   1.417       .  A
C1331      C1332   1.400       .  A
C1331      H1340   1.078       .  S
C1332      C1333   1.401       .  A
C1332      H1341   1.083       .  S
C1333      C1334   1.401       .  A
C1334      H1342   1.085       .  S
C1343      C1344   1.402       .  A
C1343      C1348   1.402       .  A
C1344      C1345   1.400       .  A
C1344      H1357   1.083       .  S
C1345      C1346   1.416       .  A
C1345      H1358   1.078       .  S
C1346      C1352   1.432       .  A
C1346      C1347   1.422       .  A
C1347      C1349   1.399       .  A
C1347      C1348   1.405       .  A
C1348      H1359   1.084       .  S
C1349      C1350   1.389       .  A
C1349      H1360   1.084       .  S
C1350      C1351   1.399       .  A
C1350      H1361   1.084       .  S
C1351      C1352   1.423       .  A
C1351      C1356   1.406       .  A
C1352      C1353   1.415       .  A
C1353      C1354   1.399       .  A
C1353      H1362   1.078       .  S
C1354      C1355   1.402       .  A
C1354      H1363   1.083       .  S
C1355      C1356   1.401       .  A
C1356      H1364   1.085       .  S
C1365      C1366   1.401       .  A
C1365      C1370   1.403       .  A
C1366      C1367   1.398       .  A
C1366      H1379   1.083       .  S
C1367      C1368   1.415       .  A
C1368      C1369   1.422       .  A
C1369      C1371   1.400       .  A
C1369      C1370   1.405       .  A
C1370      H1381   1.084       .  S
C1371      C1372   1.390       .  A
C1371      H1382   1.084       .  S
C1372      H1383   1.084       .  S
C1373      C1374   1.422       .  A
C1373      C1378   1.404       .  A
C1374      C1375   1.415       .  A
C1375      C1376   1.397       .  A
C1375      H1384   1.078       .  S
C1376      C1377   1.401       .  A
C1376      H1385   1.083       .  S
C1377      C1378   1.402       .  A
C1378      H1386   1.085       .  S
C1387      C1388   1.400       .  A
C1387      C1392   1.400       .  A
C1388      C1389   1.400       .  A
C1388      H1401   1.084       .  S
C1389      C1390   1.417       .  A
C1390      C1391   1.422       .  A
C1391      C1393   1.399       .  A
C1391      C1392   1.403       .  A
C1392      H1403   1.085       .  S
C1393      C1394   1.389       .  A
C1393      H1404   1.084       .  S
C1394      H1405   1.084       .  S
C1395      C1396   1.423       .  A
C1395      C1400   1.405       .  A
C1396      C1397   1.414       .  A
C1397      C1398   1.398       .  A
C1397      H1406   1.078       .  S
C1398      C1399   1.403       .  A
C1398      H1407   1.083       .  S
C1399      C1400   1.403       .  A
C1400      H1408   1.084       .  S
O1409     Cr1427   1.978   1_655  S
O1409      C1417   1.260       .  A
O1410      C1411   1.267       .  A
C1411      O1412   1.260       .  A
C1411      C2091   1.476       .  S
O1412     Cr1428   1.982       .  S
O1413     Cr1428   2.008       .  S
C1414      O1415   1.259   1_455  A
C1414      C1981   1.477       .  S
O1415     Cr1429   1.967       .  S
O1416     Cr1429   2.005       .  S
O1416      C1417   1.266       .  A
C1417      C2081   1.480       .  S
O1418     Cr1427   2.020   1_655  S
O1418      C1426   1.269       .  A
O1419      C1420   1.262       .  A
C1420      O1421   1.268       .  A
C1420      C2025   1.481       .  S
O1421     Cr1428   2.008       .  S
O1422     Cr1428   1.974       .  S
C1423      O1424   1.265   1_455  A
C1423      C2003   1.477       .  S
O1424     Cr1429   2.003       .  S
O1425     Cr1429   1.974       .  S
O1425      C1426   1.259       .  A
C1426      C2059   1.482       .  S
Cr1427     O1430   1.770       .  S
Cr1429     O1430   1.767   1_655  S
O1431     Cr1449   2.009       .  S
O1431      C1439   1.266       .  A
O1432     Cr1449   1.977       .  S
O1432      C1433   1.262       .  A
C1433      O1434   1.269       .  A
C1433      C2047   1.484       .  S
O1434     Cr1450   2.013       .  S
O1435     Cr1450   1.979       .  S
O1435      C1436   1.261       .  A
C1436      O1437   1.267       .  A
C1436      C1971   1.486       .  S
O1437     Cr1451   2.012       .  S
O1438     Cr1451   1.982       .  S
O1438      C1439   1.261       .  A
C1439      C2069   1.483       .  S
O1440     Cr1449   1.977       .  S
O1440      C1448   1.261       .  A
O1441     Cr1449   2.004       .  S
O1441      C1442   1.264       .  A
C1442      O1443   1.260       .  A
C1442      C2037   1.482       .  S
O1443     Cr1450   1.983       .  S
O1444     Cr1450   2.007       .  S
O1444      C1445   1.267       .  A
C1445      O1446   1.262       .  A
C1445      C1937   1.484       .  S
O1446     Cr1451   1.980       .  S
O1447     Cr1451   2.015       .  S
O1447      C1448   1.268       .  A
C1448      C2103   1.485       .  S
Cr1449     O1452   1.772       .  S
Cr1450     O1452   1.770       .  S
Cr1451     O1452   1.772       .  S
O1453     Cr1471   1.994       .  S
O1453      C1461   1.264       .  A
O1454     Cr1471   1.987       .  S
O1454      C1455   1.262       .  A
C1455      O1456   1.267       .  A
C1455      C1927   1.481       .  S
O1456     Cr1472   2.016       .  S
O1457     Cr1472   1.992       .  S
O1457      C1458   1.265       .  A
C1458      O1459   1.265       .  A
C1458      C1817   1.486       .  S
O1459     Cr1473   2.001       .  S
O1460     Cr1473   1.983       .  S
O1460      C1461   1.262       .  A
C1461      C1893   1.477       .  S
O1462     Cr1471   1.994       .  S
O1462      C1470   1.263       .  A
O1463     Cr1471   1.995       .  S
O1463      C1464   1.264       .  A
C1464      O1465   1.261       .  A
C1464      C1861   1.483       .  S
O1465     Cr1472   1.989       .  S
O1466     Cr1472   2.001       .  S
O1466      C1467   1.266       .  A
C1467      O1468   1.263       .  A
C1467      C1827   1.480       .  S
O1468     Cr1473   1.980       .  S
O1469     Cr1473   2.006       .  S
O1469      C1470   1.266       .  A
C1470      C1871   1.485       .  S
Cr1471     O1474   1.768       .  S
Cr1472     O1474   1.774       .  S
Cr1473     O1474   1.773       .  S
O1475     Cr1493   1.998   1_655  S
O1475      C1483   1.263       .  A
O1476     Cr1493   1.990   1_655  S
O1476      C1477   1.262       .  A
C1477      O1478   1.267       .  A
C1477      C1883   1.475       .  S
O1478     Cr1494   2.014   1_655  S
O1479     Cr1494   1.988   1_655  S
O1479      C1480   1.263       .  A
C1480      O1481   1.265       .  A
C1480      C1959   1.483       .  S
O1481     Cr1495   2.000   1_655  S
O1482     Cr1495   1.977   1_655  S
O1482      C1483   1.259       .  A
C1483      C1905   1.478       .  S
O1484      C1492   1.263       .  A
O1485      C1486   1.263       .  A
C1486      O1487   1.262       .  A
C1486      C1849   1.482       .  S
O1488      C1489   1.266       .  A
C1489      O1490   1.261       .  A
C1489      C1949   1.479       .  S
O1491      C1492   1.268       .  A
C1492      C1915   1.482       .  S
Cr1493     O1496   1.770       .  S
Cr1494     O1496   1.772       .  S
Cr1495     O1496   1.772       .  S
O1497     Cr1515   1.976       .  S
O1497      C1505   1.261       .  A
O1498     Cr1515   1.998       .  S
O1498      C1499   1.264       .  A
C1499      O1500   1.261       .  A
C1499      C1739   1.482       .  S
O1500     Cr1516   1.988       .  S
O1501     Cr1516   1.992       .  S
O1501      C1502   1.262       .  A
C1502      O1503   1.261       .  A
C1502      C1839   1.477       .  S
O1503     Cr1517   1.981       .  S
O1504     Cr1517   2.007       .  S
O1504      C1505   1.267       .  A
C1505      C1717   1.478       .  S
O1506     Cr1515   1.995       .  S
O1506      C1514   1.262       .  A
O1507     Cr1515   1.983       .  S
O1507      C1508   1.262       .  A
C1508      O1509   1.265       .  A
C1508      C1773   1.479       .  S
O1509     Cr1516   1.997       .  S
O1510     Cr1516   1.989       .  S
O1510      C1511   1.264       .  A
C1511      O1512   1.267       .  A
C1511      C1805   1.487       .  S
O1512     Cr1517   2.004       .  S
O1513     Cr1517   1.984       .  S
O1513      C1514   1.261       .  A
C1514      C1795   1.478       .  S
Cr1515     O1518   1.774       .  S
Cr1516     O1518   1.772       .  S
Cr1517     O1518   1.769       .  S
O1519      C1527   1.266       .  A
O1520      C1521   1.261       .  A
C1521      O1522   1.264       .  A
C1521      C1783   1.477       .  S
O1523      C1524   1.262       .  A
C1524      O1525   1.263       .  A
C1524      C1685   1.476       .  S
O1526      C1527   1.262       .  A
C1527      C1729   1.482       .  S
O1528     Cr1537   1.983   1_655  S
O1528      C1536   1.261       .  A
O1529     Cr1537   2.004   1_655  S
O1529      C1530   1.266       .  A
C1530      O1531   1.260       .  A
C1530      C1761   1.475       .  S
O1531     Cr1538   1.978       .  S
O1532     Cr1538   1.996       .  S
O1532      C1533   1.265       .  A
C1533      O1534   1.263       .  A
C1533      C1707   1.482       .  S
O1534     Cr1539   1.989       .  S
O1535     Cr1539   1.994       .  S
O1535      C1536   1.263       .  A
C1536      C1751   1.473       .  S
Cr1537     O1540   1.775       .  S
Cr1538     O1540   1.769   1_655  S
Cr1539     O1540   1.769   1_655  S
O1541      C1549   1.263       .  A
O1542     Cr1559   1.976       .  S
O1542      C1543   1.260       .  A
C1543      O1544   1.265       .  A
C1543      C1619   1.471       .  S
O1544     Cr1560   1.995       .  S
O1545     Cr1560   1.980       .  S
O1545      C1546   1.261       .  A
C1546      C2015   1.477       .  S
O1547     Cr1561   1.995       .  S
O1548     Cr1561   1.986       .  S
O1548      C1549   1.262       .  A
C1549      C1585   1.476       .  S
O1550      C1558   1.260       .  A
O1551     Cr1559   1.995       .  S
O1551      C1552   1.263       .  A
C1552      O1553   1.260       .  A
C1552      C1629   1.477       .  S
O1553     Cr1560   1.979       .  S
O1554     Cr1560   1.995       .  S
O1554      C1555   1.264   1_655  A
C1555      C1993   1.477   1_455  S
O1556     Cr1561   1.980       .  S
O1557     Cr1561   1.996       .  S
O1557      C1558   1.265       .  A
C1558      C1663   1.470       .  S
Cr1559     O1562   1.770       .  S
Cr1560     O1562   1.766       .  S
O1563     Cr1581   1.973       .  S
O1563      C1571   1.260       .  A
O1564     Cr1581   1.999       .  S
O1564      C1565   1.266       .  A
C1565      O1566   1.261       .  A
C1565      C1607   1.475       .  S
O1566     Cr1582   1.978       .  S
O1567     Cr1582   2.009       .  S
O1567      C1568   1.265       .  A
C1568      O1569   1.259       .  A
C1568      C1695   1.481       .  S
O1569     Cr1583   1.971       .  S
O1570     Cr1583   1.997       .  S
O1570      C1571   1.265       .  A
C1571      C1641   1.468       .  S
O1572     Cr1581   2.003       .  S
O1572      C1580   1.264       .  A
O1573     Cr1581   1.981       .  S
O1573      C1574   1.261       .  A
C1574      O1575   1.265       .  A
C1574      C1597   1.474       .  S
O1575     Cr1582   1.998       .  S
O1576     Cr1582   1.972       .  S
O1576      C1577   1.260       .  A
C1577      O1578   1.265       .  A
C1577      C1673   1.474       .  S
O1578     Cr1583   1.997       .  S
O1579     Cr1583   1.973       .  S
O1579      C1580   1.259       .  A
C1580      C1651   1.476       .  S
Cr1581     O1584   1.771       .  S
Cr1582     O1584   1.767       .  S
Cr1583     O1584   1.764       .  S
C1585      C1586   1.400       .  A
C1585      C1590   1.401       .  A
C1586      C1587   1.390       .  A
C1586      H1599   1.084       .  S
C1587      C1588   1.413       .  A
C1587      H1600   1.074       .  S
C1588      C1594   1.427       .  A
C1588      C1589   1.422       .  A
C1589      C1591   1.400       .  A
C1589      C1590   1.407       .  A
C1590      H1601   1.084       .  S
C1591      C1592   1.392       .  A
C1591      H1602   1.084       .  S
C1592      C1593   1.400       .  A
C1592      H1603   1.083       .  S
C1593      C1594   1.422       .  A
C1593      C1598   1.407       .  A
C1594      C1595   1.414       .  A
C1595      C1596   1.391       .  A
C1595      H1604   1.074       .  S
C1596      C1597   1.398       .  A
C1596      H1605   1.084       .  S
C1597      C1598   1.401       .  A
C1598      H1606   1.083       .  S
C1607      C1608   1.400       .  A
C1607      C1612   1.401       .  A
C1608      C1609   1.390       .  A
C1608      H1621   1.083       .  S
C1609      C1610   1.413       .  A
C1609      H1622   1.076       .  S
C1610      C1616   1.425       .  A
C1610      C1611   1.422       .  A
C1611      C1613   1.400       .  A
C1611      C1612   1.405       .  A
C1612      H1623   1.084       .  S
C1613      C1614   1.390       .  A
C1613      H1624   1.084       .  S
C1614      C1615   1.400       .  A
C1614      H1625   1.084       .  S
C1615      C1616   1.423       .  A
C1615      C1620   1.405       .  A
C1616      C1617   1.414       .  A
C1617      C1618   1.390       .  A
C1617      H1626   1.076       .  S
C1618      C1619   1.398       .  A
C1618      H1627   1.084       .  S
C1619      C1620   1.400       .  A
C1620      H1628   1.085       .  S
C1629      C1630   1.401       .  A
C1629      C1634   1.401       .  A
C1630      C1631   1.393       .  A
C1630      H1643   1.083       .  S
C1631      C1632   1.413       .  A
C1631      H1644   1.077       .  S
C1632      C2342   1.426   1_545  A
C1632      C1633   1.422       .  A
C1633      C2339   1.399   1_545  A
C1633      C1634   1.403       .  A
C1634      H1645   1.084       .  S
C1635      C2337   1.399       .  A
C1635      C1636   1.389       .  A
C1635      H1646   1.084       .  S
C1636      C1637   1.399       .  A
C1636      H1647   1.084       .  S
C1637      C1638   1.423       .  A
C1637      C1642   1.403       .  A
C1638      C2336   1.426       .  A
C1638      C1639   1.415       .  A
C1639      C1640   1.393       .  A
C1639      H2352   1.077       .  S
C1640      C1641   1.398       .  A
C1640      H1649   1.084       .  S
C1641      C1642   1.398       .  A
C1642      H1650   1.085       .  S
H1648      C2343   1.077       .  S
C1651      C1652   1.400       .  A
C1651      C1656   1.401       .  A
C1652      C1653   1.394       .  A
C1652      H1665   1.083       .  S
C1653      C1654   1.414       .  A
C1653      H2370   1.077       .  S
C1654      C2364   1.427       .  A
C1654      C1655   1.422       .  A
C1655      C1657   1.399       .  A
C1655      C1656   1.402       .  A
C1656      H1667   1.085       .  S
C1657      C2362   1.388       .  A
C1657      H1668   1.084       .  S
C1658      C2361   1.388   1_545  A
C1658      C1659   1.399       .  A
C1658      H1669   1.084       .  S
C1659      C1660   1.422       .  A
C1659      C1664   1.400       .  A
C1660      C2358   1.427   1_545  A
C1660      C1661   1.416       .  A
C1661      C1662   1.395       .  A
C1661      H1670   1.077       .  S
C1662      C1663   1.398       .  A
C1662      H1671   1.083       .  S
C1663      C1664   1.400       .  A
C1664      H1672   1.085       .  S
H1666      C2357   1.077       .  S
C1673      C1674   1.399       .  A
C1673      C1678   1.401       .  A
C1674      C1675   1.394       .  A
C1674      H1687   1.083       .  S
C1675      C1676   1.416       .  A
C1675      H1688   1.077       .  S
C1676      C1682   1.426       .  A
C1676      C1677   1.421       .  A
C1677      C1679   1.399       .  A
C1677      C1678   1.400       .  A
C1678      H1689   1.084       .  S
C1679      C1680   1.388       .  A
C1679      H1690   1.084       .  S
C1680      C1681   1.398       .  A
C1680      H1691   1.084       .  S
C1681      C1682   1.423       .  A
C1681      C1686   1.404       .  A
C1682      C1683   1.412       .  A
C1683      C1684   1.391       .  A
C1683      H1692   1.077       .  S
C1684      C1685   1.402       .  A
C1684      H1693   1.083       .  S
C1685      C1686   1.400       .  A
C1686      H1694   1.084       .  S
C1695      C1696   1.400       .  A
C1695      C1700   1.404       .  A
C1696      C1697   1.393       .  A
C1696      H1709   1.083       .  S
C1697      C1698   1.415       .  A
C1697      H1710   1.076       .  S
C1698      C1704   1.428       .  A
C1698      C1699   1.421       .  A
C1699      C1701   1.401       .  A
C1699      C1700   1.407       .  A
C1700      H1711   1.084       .  S
C1701      C1702   1.392       .  A
C1701      H1712   1.084       .  S
C1702      C1703   1.400       .  A
C1702      H1713   1.084       .  S
C1703      C1704   1.423       .  A
C1703      C1708   1.410       .  A
C1704      C1705   1.411       .  A
C1705      C1706   1.390       .  A
C1705      H1714   1.076       .  S
C1706      C1707   1.402       .  A
C1706      H1715   1.083       .  S
C1707      C1708   1.403       .  A
C1708      H1716   1.084       .  S
C1717      C1718   1.400       .  A
C1717      C1722   1.401       .  A
C1718      C1719   1.397       .  A
C1718      H1731   1.083       .  S
C1719      C1720   1.415       .  A
C1719      H1732   1.077       .  S
C1720      C1726   1.430       .  A
C1720      C1721   1.422       .  A
C1721      C1723   1.399       .  A
C1721      C1722   1.404       .  A
C1722      H1733   1.085       .  S
C1723      C1724   1.389       .  A
C1723      H1734   1.084       .  S
C1724      C1725   1.400       .  A
C1724      H1735   1.084       .  S
C1725      C1726   1.422       .  A
C1725      C1730   1.404       .  A
C1726      C1727   1.415       .  A
C1727      C1728   1.397       .  A
C1727      H1736   1.077       .  S
C1728      C1729   1.401       .  A
C1728      H1737   1.083       .  S
C1729      C1730   1.403       .  A
C1730      H1738   1.084       .  S
C1739      C1740   1.401       .  A
C1739      C1744   1.403       .  A
C1740      C1741   1.392       .  A
C1740      H1753   1.083       .  S
C1741      C1742   1.413       .  A
C1741      H1754   1.077       .  S
C1742      C1748   1.428       .  A
C1742      C1743   1.422       .  A
C1743      C1745   1.400       .  A
C1743      C1744   1.408       .  A
C1744      H1755   1.084       .  S
C1745      C1746   1.392       .  A
C1745      H1756   1.084       .  S
C1746      C1747   1.400       .  A
C1746      H1757   1.084       .  S
C1747      C1748   1.423       .  A
C1747      C1752   1.408       .  A
C1748      C1749   1.414       .  A
C1749      C1750   1.391       .  A
C1749      H1758   1.077       .  S
C1750      C1751   1.398       .  A
C1750      H1759   1.084       .  S
C1751      C1752   1.401       .  A
C1752      H1760   1.085       .  S
C1761      C1762   1.400       .  A
C1761      C1766   1.399       .  A
C1762      C1763   1.398       .  A
C1762      H1775   1.083       .  S
C1763      C1764   1.416       .  A
C1763      H1776   1.078       .  S
C1764      C2474   1.429       .  A
C1764      C1765   1.423       .  A
C1765      C2471   1.398       .  A
C1765      C1766   1.400       .  A
C1766      H1777   1.085       .  S
C1767      C2469   1.398   1_545  A
C1767      C1768   1.386       .  A
C1767      H1778   1.084       .  S
C1768      C1769   1.398       .  A
C1768      H1779   1.084       .  S
C1769      C1770   1.421       .  A
C1769      C1774   1.399       .  A
C1770      C2468   1.429   1_545  A
C1770      C1771   1.416       .  A
C1771      C1772   1.399       .  A
C1771      H2484   1.078       .  S
C1772      C1773   1.401       .  A
C1772      H1781   1.083       .  S
C1773      C1774   1.401       .  A
C1774      H1782   1.085       .  S
H1780      C2475   1.078       .  S
C1783      C1784   1.400       .  A
C1783      C1788   1.401       .  A
C1784      C1785   1.394       .  A
C1784      H1797   1.084       .  S
C1785      C1786   1.415       .  A
C1785      H2502   1.077       .  S
C1786      C2496   1.428       .  A
C1786      C1787   1.422       .  A
C1787      C1789   1.399       .  A
C1787      C1788   1.405       .  A
C1788      H1799   1.084       .  S
C1789      C1790   1.390       .  A
C1789      H1800   1.084       .  S
C1790      C2495   1.399       .  A
C1790      H1801   1.084       .  S
C1791      C2494   1.399   1_545  A
C1791      C1792   1.423       .  A
C1791      C1796   1.405       .  A
C1792      C2490   1.428   1_545  A
C1792      C1793   1.413       .  A
C1793      C1794   1.393       .  A
C1793      H1802   1.077       .  S
C1794      C1795   1.402       .  A
C1794      H1803   1.083       .  S
C1795      C1796   1.400       .  A
C1796      H1804   1.084       .  S
H1798      C2489   1.077       .  S
C1805      C1806   1.403       .  A
C1805      C1810   1.403       .  A
C1806      C1807   1.396       .  A
C1806      H1819   1.083       .  S
C1807      C1808   1.413       .  A
C1807      H1820   1.077       .  S
C1808      C2518   1.433   1_545  A
C1808      C1809   1.424       .  A
C1809      C2515   1.400       .  A
C1809      C1810   1.410       .  A
C1810      H1821   1.084       .  S
C1811      C2513   1.400       .  A
C1811      C1812   1.391       .  A
C1811      H1822   1.084       .  S
C1812      C1813   1.401       .  A
C1812      H1823   1.084       .  S
C1813      C1814   1.421       .  A
C1813      C1818   1.406       .  A
C1814      C2512   1.433       .  A
C1814      C1815   1.417       .  A
C1815      C1816   1.400       .  A
C1815      H2528   1.077       .  S
C1816      C1817   1.400       .  A
C1816      H1825   1.083       .  S
C1817      C1818   1.406       .  A
C1818      H1826   1.084       .  S
H1824      C2519   1.077       .  S
C1827      C1828   1.400       .  A
C1827      C1832   1.402       .  A
C1828      C1829   1.397       .  A
C1828      H1841   1.083       .  S
C1829      C1830   1.416       .  A
C1829      H1842   1.077       .  S
C1830      C1836   1.429       .  A
C1830      C1831   1.421       .  A
C1831      C1833   1.399       .  A
C1831      C1832   1.402       .  A
C1832      H1843   1.084       .  S
C1833      C1834   1.388       .  A
C1833      H1844   1.084       .  S
C1834      C1835   1.398       .  A
C1834      H1845   1.084       .  S
C1835      C1836   1.424       .  A
C1835      C1840   1.404       .  A
C1836      C1837   1.413       .  A
C1837      C1838   1.394       .  A
C1837      H1846   1.077       .  S
C1838      C1839   1.402       .  A
C1838      H1847   1.083       .  S
C1839      C1840   1.400       .  A
C1840      H1848   1.085       .  S
C1849      C1850   1.399       .  A
C1849      C1854   1.406       .  A
C1850      C1851   1.395       .  A
C1850      H1863   1.083       .  S
C1851      C1852   1.416       .  A
C1851      H1864   1.076       .  S
C1852      C1858   1.429       .  A
C1852      C1853   1.420       .  A
C1853      C1855   1.401       .  A
C1853      C1854   1.405       .  A
C1854      H1865   1.084       .  S
C1855      C1856   1.392       .  A
C1855      H1866   1.084       .  S
C1856      C1857   1.400       .  A
C1856      H1867   1.084       .  S
C1857      C1858   1.424       .  A
C1857      C1862   1.410       .  A
C1858      C1859   1.411       .  A
C1859      C1860   1.391       .  A
C1859      H1868   1.076       .  S
C1860      C1861   1.402       .  A
C1860      H1869   1.083       .  S
C1861      C1862   1.404       .  A
C1862      H1870   1.084       .  S
C1871      C1872   1.402       .  A
C1871      C1876   1.403       .  A
C1872      C1873   1.395       .  A
C1872      H1885   1.083       .  S
C1873      C1874   1.414       .  A
C1873      H1886   1.077       .  S
C1874      C1880   1.432       .  A
C1874      C1875   1.423       .  A
C1875      C1877   1.400       .  A
C1875      C1876   1.411       .  A
C1876      H1887   1.084       .  S
C1877      C1878   1.393       .  A
C1877      H1888   1.084       .  S
C1878      C1879   1.401       .  A
C1878      H1889   1.084       .  S
C1879      C1880   1.423       .  A
C1879      C1884   1.410       .  A
C1880      C1881   1.416       .  A
C1881      C1882   1.396       .  A
C1881      H1890   1.077       .  S
C1882      C1883   1.398       .  A
C1882      H1891   1.084       .  S
C1883      C1884   1.401       .  A
C1884      H1892   1.085       .  S
C1893      C1894   1.401       .  A
C1893      C1898   1.400       .  A
C1894      C1895   1.392       .  A
C1894      H1907   1.083       .  S
C1895      C1896   1.412       .  A
C1895      H2612   1.077       .  S
C1896      C2606   1.428       .  A
C1896      C1897   1.424       .  A
C1897      C1899   1.399       .  A
C1897      C1898   1.405       .  A
C1898      H1909   1.084       .  S
C1899      C1900   1.389       .  A
C1899      H1910   1.084       .  S
C1900      C2605   1.400       .  A
C1900      H1911   1.084       .  S
C1901      C2604   1.400       .  A
C1901      C1902   1.421       .  A
C1901      C1906   1.402       .  A
C1902      C2600   1.428   1_545  A
C1902      C1903   1.416       .  A
C1903      C1904   1.396       .  A
C1903      H1912   1.077       .  S
C1904      C1905   1.400       .  A
C1904      H1913   1.083       .  S
C1905      C1906   1.402       .  A
C1906      H1914   1.084       .  S
H1908      C2599   1.077       .  S
C1915      C1916   1.401       .  A
C1915      C1920   1.401       .  A
C1916      C1917   1.402       .  A
C1916      H1929   1.083       .  S
C1917      C1918   1.417       .  A
C1917      H1930   1.078       .  S
C1918      C2628   1.434   1_545  A
C1918      C1919   1.423   1_545  A
C1919      C2625   1.399       .  A
C1919      C1920   1.406   1_565  A
C1920      H1931   1.085       .  S
C1921      C2623   1.399       .  A
C1921      C1922   1.390       .  A
C1921      H1932   1.084       .  S
C1922      C1923   1.399       .  A
C1922      H1933   1.084       .  S
C1923      C1924   1.423       .  A
C1923      C1928   1.407       .  A
C1924      C2622   1.434       .  A
C1924      C1925   1.417       .  A
C1925      C1926   1.402       .  A
C1925      H2638   1.078       .  S
C1926      C1927   1.401       .  A
C1926      H1935   1.083       .  S
C1927      C1928   1.401       .  A
C1928      H1936   1.085       .  S
H1934      C2629   1.078   1_545  S
C1937      C1938   1.402       .  A
C1937      C1942   1.403       .  A
C1938      C1939   1.398       .  A
C1938      H1951   1.083       .  S
C1939      C1940   1.415       .  A
C1939      H1952   1.078       .  S
C1940      C1946   1.431       .  A
C1940      C1941   1.422       .  A
C1941      C1943   1.399       .  A
C1941      C1942   1.404       .  A
C1942      H1953   1.084       .  S
C1943      C1944   1.389       .  A
C1943      H1954   1.084       .  S
C1944      C1945   1.399       .  A
C1944      H1955   1.084       .  S
C1945      C1946   1.422       .  A
C1945      C1950   1.404       .  A
C1946      C1947   1.416       .  A
C1947      C1948   1.399       .  A
C1947      H1956   1.078       .  S
C1948      C1949   1.400       .  A
C1948      H1957   1.083       .  S
C1949      C1950   1.401       .  A
C1950      H1958   1.085       .  S
C1959      C1960   1.400       .  A
C1959      C1964   1.403       .  A
C1960      C1961   1.400       .  A
C1960      H1973   1.083       .  S
C1961      C1962   1.417       .  A
C1961      H1974   1.078       .  S
C1962      C1968   1.432       .  A
C1962      C1963   1.421       .  A
C1963      C1965   1.400       .  A
C1963      C1964   1.405       .  A
C1964      H1975   1.085       .  S
C1965      C1966   1.390       .  A
C1965      H1976   1.084       .  S
C1966      C1967   1.400       .  A
C1966      H1977   1.084       .  S
C1967      C1968   1.423       .  A
C1967      C1972   1.407       .  A
C1968      C1969   1.414       .  A
C1969      C1970   1.398       .  A
C1969      H1978   1.078       .  S
C1970      C1971   1.402       .  A
C1970      H1979   1.083       .  S
C1971      C1972   1.403       .  A
C1972      H1980   1.084       .  S
C1981      C1982   1.399   1_455  A
C1982      C1983   1.391       .  A
C1982      H1995   1.083       .  S
C1983      C1984   1.413       .  A
C1983      H2700   1.077       .  S
C1984      C2694   1.425   1_556  A
C1985      C1987   1.400   1_556  A
C1985      C1986   1.405       .  A
C1986      H1997   1.084       .  S
C1987      C1988   1.391       .  A
C1987      H1998   1.084       .  S
C1988      C2693   1.400       .  A
C1988      H1999   1.084       .  S
C1989      C2692   1.400   1_545  A
C1989      C1994   1.406       .  A
C1990      C2688   1.425   1_544  A
C1990      C1991   1.412       .  A
C1991      C1992   1.389       .  A
C1991      H2000   1.077       .  S
C1992      C1993   1.401       .  A
C1992      H2001   1.083       .  S
C1994      H2002   1.084       .  S
H1996      C2687   1.077       .  S
C2003      C2008   1.403   1_455  A
C2004      C2005   1.393       .  A
C2004      H2017   1.083       .  S
C2005      C2006   1.415       .  A
C2005      H2018   1.077       .  S
C2006      C2012   1.426   1_556  A
C2007      C2009   1.400   1_556  A
C2007      C2008   1.403       .  A
C2008      H2019   1.084       .  S
C2009      C2010   1.390       .  A
C2009      H2020   1.084       .  S
C2010      C2011   1.399       .  A
C2010      H2021   1.084       .  S
C2011      C2016   1.406       .  A
C2012      C2013   1.412       .  A
C2013      C2014   1.390       .  A
C2013      H2022   1.077       .  S
C2014      H2023   1.083       .  S
C2015      C2016   1.402       .  A
C2016      H2024   1.084       .  S
C2025      C2026   1.401       .  A
C2025      C2030   1.401       .  A
C2026      C2027   1.400       .  A
C2026      H2039   1.083       .  S
C2027      C2028   1.416       .  A
C2027      H2040   1.078       .  S
C2028      C2034   1.432       .  A
C2028      C2029   1.423       .  A
C2029      C2031   1.399       .  A
C2029      C2030   1.403       .  A
C2030      H2041   1.085       .  S
C2031      C2032   1.388       .  A
C2031      H2042   1.084       .  S
C2032      C2033   1.399       .  A
C2032      H2043   1.084       .  S
C2033      C2034   1.422       .  A
C2033      C2038   1.402       .  A
C2034      C2035   1.417       .  A
C2035      C2036   1.400       .  A
C2035      H2044   1.078       .  S
C2036      C2037   1.401       .  A
C2036      H2045   1.083       .  S
C2037      C2038   1.401       .  A
C2038      H2046   1.085       .  S
C2047      C2048   1.402       .  A
C2047      C2052   1.402       .  A
C2048      C2049   1.400       .  A
C2048      H2061   1.083       .  S
C2049      C2050   1.416       .  A
C2049      H2062   1.078       .  S
C2050      C2056   1.432       .  A
C2050      C2051   1.422       .  A
C2051      C2053   1.399       .  A
C2051      C2052   1.405       .  A
C2052      H2063   1.084       .  S
C2053      C2054   1.389       .  A
C2053      H2064   1.084       .  S
C2054      C2055   1.399       .  A
C2054      H2065   1.084       .  S
C2055      C2056   1.423       .  A
C2055      C2060   1.406       .  A
C2056      C2057   1.415       .  A
C2057      C2058   1.399       .  A
C2057      H2066   1.078       .  S
C2058      C2059   1.402       .  A
C2058      H2067   1.083       .  S
C2059      C2060   1.401       .  A
C2060      H2068   1.085       .  S
C2069      C2070   1.401       .  A
C2069      C2074   1.403       .  A
C2070      C2071   1.398       .  A
C2070      H2083   1.083       .  S
C2071      C2072   1.415       .  A
C2071      H2788   1.077       .  S
C2072      C2782   1.430   1_545  A
C2072      C2073   1.422       .  A
C2073      C2075   1.400       .  A
C2073      C2074   1.405       .  A
C2074      H2085   1.084       .  S
C2075      C2076   1.390   1_545  A
C2075      H2086   1.084       .  S
C2076      C2781   1.399       .  A
C2076      H2087   1.084       .  S
C2077      C2780   1.399       .  A
C2077      C2078   1.422       .  A
C2077      C2082   1.404       .  A
C2078      C2776   1.430       .  A
C2078      C2079   1.415       .  A
C2079      C2080   1.397       .  A
C2079      H2088   1.078       .  S
C2080      C2081   1.401       .  A
C2080      H2089   1.083       .  S
C2081      C2082   1.402       .  A
C2082      H2090   1.085       .  S
H2084      C2775   1.077       .  S
C2091      C2092   1.400       .  A
C2091      C2096   1.400       .  A
C2092      C2093   1.400       .  A
C2092      H2105   1.084       .  S
C2093      C2094   1.417       .  A
C2093      H2810   1.078       .  S
C2094      C2804   1.431       .  A
C2094      C2095   1.422       .  A
C2095      C2097   1.399       .  A
C2095      C2096   1.403       .  A
C2096      H2107   1.085       .  S
C2097      C2098   1.389       .  A
C2097      H2108   1.084       .  S
C2098      C2803   1.399       .  A
C2098      H2109   1.084       .  S
C2099      C2802   1.399       .  A
C2099      C2100   1.423   1_565  A
C2099      C2104   1.405   1_565  A
C2100      C2798   1.431   1_545  A
C2100      C2101   1.414       .  A
C2101      C2102   1.398       .  A
C2101      H2110   1.078       .  S
C2102      C2103   1.403       .  A
C2102      H2111   1.083       .  S
C2103      C2104   1.403       .  A
C2104      H2112   1.084       .  S
H2106      C2797   1.078   1_545  S
O2113     Cr2131   1.978   1_655  S
O2113      C2121   1.260       .  A
O2114      C2115   1.267       .  A
C2115      O2116   1.260       .  A
C2115      C2795   1.476       .  S
O2116     Cr2132   1.982       .  S
O2117     Cr2132   2.008       .  S
C2118      O2119   1.259   1_455  A
C2118      C2685   1.477       .  S
O2119     Cr2133   1.967       .  S
O2120     Cr2133   2.005       .  S
O2120      C2121   1.266       .  A
C2121      C2785   1.480       .  S
O2122     Cr2131   2.020   1_655  S
O2122      C2130   1.269       .  A
O2123      C2124   1.262       .  A
C2124      O2125   1.268       .  A
C2124      C2729   1.481       .  S
O2125     Cr2132   2.008       .  S
O2126     Cr2132   1.974       .  S
C2127      O2128   1.265   1_455  A
C2127      C2707   1.477       .  S
O2128     Cr2133   2.003       .  S
O2129     Cr2133   1.974       .  S
O2129      C2130   1.259       .  A
C2130      C2763   1.482       .  S
Cr2131     O2134   1.770       .  S
Cr2133     O2134   1.767   1_655  S
O2135     Cr2153   2.009       .  S
O2135      C2143   1.266       .  A
O2136     Cr2153   1.977       .  S
O2136      C2137   1.262       .  A
C2137      O2138   1.269       .  A
C2137      C2751   1.484       .  S
O2138     Cr2154   2.013       .  S
O2139     Cr2154   1.979       .  S
O2139      C2140   1.261       .  A
C2140      O2141   1.267       .  A
C2140      C2675   1.486       .  S
O2141     Cr2155   2.012       .  S
O2142     Cr2155   1.982       .  S
O2142      C2143   1.261       .  A
C2143      C2773   1.483       .  S
O2144     Cr2153   1.977       .  S
O2144      C2152   1.261       .  A
O2145     Cr2153   2.004       .  S
O2145      C2146   1.264       .  A
C2146      O2147   1.260       .  A
C2146      C2741   1.482       .  S
O2147     Cr2154   1.983       .  S
O2148     Cr2154   2.007       .  S
O2148      C2149   1.267       .  A
C2149      O2150   1.262       .  A
C2149      C2641   1.484       .  S
O2150     Cr2155   1.980       .  S
O2151     Cr2155   2.015       .  S
O2151      C2152   1.268       .  A
C2152      C2807   1.485       .  S
Cr2153     O2156   1.772       .  S
Cr2154     O2156   1.770       .  S
Cr2155     O2156   1.772       .  S
O2157     Cr2175   1.994       .  S
O2157      C2165   1.264       .  A
O2158     Cr2175   1.987       .  S
O2158      C2159   1.262       .  A
C2159      O2160   1.267       .  A
C2159      C2631   1.481       .  S
O2160     Cr2176   2.016       .  S
O2161     Cr2176   1.992       .  S
O2161      C2162   1.265       .  A
C2162      O2163   1.265       .  A
C2162      C2521   1.486       .  S
O2163     Cr2177   2.001       .  S
O2164     Cr2177   1.983       .  S
O2164      C2165   1.262       .  A
C2165      C2597   1.477       .  S
O2166     Cr2175   1.994       .  S
O2166      C2174   1.263       .  A
O2167     Cr2175   1.995       .  S
O2167      C2168   1.264       .  A
C2168      O2169   1.261       .  A
C2168      C2565   1.483       .  S
O2169     Cr2176   1.989       .  S
O2170     Cr2176   2.001       .  S
O2170      C2171   1.266       .  A
C2171      O2172   1.263       .  A
C2171      C2531   1.480       .  S
O2172     Cr2177   1.980       .  S
O2173     Cr2177   2.006       .  S
O2173      C2174   1.266       .  A
C2174      C2575   1.485       .  S
Cr2175     O2178   1.768       .  S
Cr2176     O2178   1.774       .  S
Cr2177     O2178   1.773       .  S
O2179     Cr2197   1.998   1_655  S
O2179      C2187   1.263       .  A
O2180     Cr2197   1.990   1_655  S
O2180      C2181   1.262       .  A
C2181      O2182   1.267       .  A
C2181      C2587   1.475       .  S
O2182     Cr2198   2.014   1_655  S
O2183     Cr2198   1.988   1_655  S
O2183      C2184   1.263       .  A
C2184      O2185   1.265       .  A
C2184      C2663   1.483       .  S
O2185     Cr2199   2.000   1_655  S
O2186     Cr2199   1.977   1_655  S
O2186      C2187   1.259       .  A
C2187      C2609   1.478       .  S
O2188      C2196   1.263       .  A
O2189      C2190   1.263       .  A
C2190      O2191   1.262       .  A
C2190      C2553   1.482       .  S
O2192      C2193   1.266       .  A
C2193      O2194   1.261       .  A
C2193      C2653   1.479       .  S
O2195      C2196   1.268       .  A
C2196      C2619   1.482       .  S
Cr2197     O2200   1.770       .  S
Cr2198     O2200   1.772       .  S
Cr2199     O2200   1.772       .  S
O2201     Cr2219   1.976       .  S
O2201      C2209   1.261       .  A
O2202     Cr2219   1.998       .  S
O2202      C2203   1.264       .  A
C2203      O2204   1.261       .  A
C2203      C2443   1.482       .  S
O2204     Cr2220   1.988       .  S
O2205     Cr2220   1.992       .  S
O2205      C2206   1.262       .  A
C2206      O2207   1.261       .  A
C2206      C2543   1.477       .  S
O2207     Cr2221   1.981       .  S
O2208     Cr2221   2.007       .  S
O2208      C2209   1.267       .  A
C2209      C2421   1.478       .  S
O2210     Cr2219   1.995       .  S
O2210      C2218   1.262       .  A
O2211     Cr2219   1.983       .  S
O2211      C2212   1.262       .  A
C2212      O2213   1.265       .  A
C2212      C2477   1.479       .  S
O2213     Cr2220   1.997       .  S
O2214     Cr2220   1.989       .  S
O2214      C2215   1.264       .  A
C2215      O2216   1.267       .  A
C2215      C2509   1.487       .  S
O2216     Cr2221   2.004       .  S
O2217     Cr2221   1.984       .  S
O2217      C2218   1.261       .  A
C2218      C2499   1.478       .  S
Cr2219     O2222   1.774       .  S
Cr2220     O2222   1.772       .  S
Cr2221     O2222   1.769       .  S
O2223      C2231   1.266       .  A
O2224      C2225   1.261       .  A
C2225      O2226   1.264       .  A
C2225      C2487   1.477       .  S
O2227      C2228   1.262       .  A
C2228      O2229   1.263       .  A
C2228      C2389   1.476       .  S
O2230      C2231   1.262       .  A
C2231      C2433   1.482       .  S
O2232     Cr2241   1.983   1_655  S
O2232      C2240   1.261       .  A
O2233     Cr2241   2.004   1_655  S
O2233      C2234   1.266       .  A
C2234      O2235   1.260       .  A
C2234      C2465   1.475       .  S
O2235     Cr2242   1.978       .  S
O2236     Cr2242   1.996       .  S
O2236      C2237   1.265       .  A
C2237      O2238   1.263       .  A
C2237      C2411   1.482       .  S
O2238     Cr2243   1.989       .  S
O2239     Cr2243   1.994       .  S
O2239      C2240   1.263       .  A
C2240      C2455   1.473       .  S
Cr2241     O2244   1.775       .  S
Cr2242     O2244   1.769   1_655  S
Cr2243     O2244   1.769   1_655  S
O2245      C2253   1.263       .  A
O2246     Cr2263   1.976       .  S
O2246      C2247   1.260       .  A
C2247      O2248   1.265       .  A
C2247      C2323   1.471       .  S
O2248     Cr2264   1.995       .  S
O2249     Cr2264   1.980       .  S
O2249      C2250   1.261       .  A
C2250      C2719   1.477       .  S
O2251     Cr2265   1.995       .  S
O2252     Cr2265   1.986       .  S
O2252      C2253   1.262       .  A
C2253      C2289   1.476       .  S
O2254      C2262   1.260       .  A
O2255     Cr2263   1.995       .  S
O2255      C2256   1.263       .  A
C2256      O2257   1.260       .  A
C2256      C2333   1.477       .  S
O2257     Cr2264   1.979       .  S
O2258     Cr2264   1.995       .  S
O2258      C2259   1.264   1_655  A
C2259      C2697   1.477   1_455  S
O2260     Cr2265   1.980       .  S
O2261     Cr2265   1.996       .  S
O2261      C2262   1.265       .  A
C2262      C2367   1.470       .  S
Cr2263     O2266   1.770       .  S
Cr2264     O2266   1.766       .  S
O2267     Cr2285   1.973       .  S
O2267      C2275   1.260       .  A
O2268     Cr2285   1.999       .  S
O2268      C2269   1.266       .  A
C2269      O2270   1.261       .  A
C2269      C2311   1.475       .  S
O2270     Cr2286   1.978       .  S
O2271     Cr2286   2.009       .  S
O2271      C2272   1.265       .  A
C2272      O2273   1.259       .  A
C2272      C2399   1.481       .  S
O2273     Cr2287   1.971       .  S
O2274     Cr2287   1.997       .  S
O2274      C2275   1.265       .  A
C2275      C2345   1.468       .  S
O2276     Cr2285   2.003       .  S
O2276      C2284   1.264       .  A
O2277     Cr2285   1.981       .  S
O2277      C2278   1.261       .  A
C2278      O2279   1.265       .  A
C2278      C2301   1.474       .  S
O2279     Cr2286   1.998       .  S
O2280     Cr2286   1.972       .  S
O2280      C2281   1.260       .  A
C2281      O2282   1.265       .  A
C2281      C2377   1.474       .  S
O2282     Cr2287   1.997       .  S
O2283     Cr2287   1.973       .  S
O2283      C2284   1.259       .  A
C2284      C2355   1.476       .  S
Cr2285     O2288   1.771       .  S
Cr2286     O2288   1.767       .  S
Cr2287     O2288   1.764       .  S
C2289      C2290   1.400       .  A
C2289      C2294   1.401       .  A
C2290      C2291   1.390       .  A
C2290      H2303   1.084       .  S
C2291      C2292   1.413       .  A
C2291      H2304   1.074       .  S
C2292      C2298   1.427       .  A
C2292      C2293   1.422       .  A
C2293      C2295   1.400       .  A
C2293      C2294   1.407       .  A
C2294      H2305   1.084       .  S
C2295      C2296   1.392       .  A
C2295      H2306   1.084       .  S
C2296      C2297   1.400       .  A
C2296      H2307   1.083       .  S
C2297      C2298   1.422       .  A
C2297      C2302   1.407       .  A
C2298      C2299   1.414       .  A
C2299      C2300   1.391       .  A
C2299      H2308   1.074       .  S
C2300      C2301   1.398       .  A
C2300      H2309   1.084       .  S
C2301      C2302   1.402       .  A
C2302      H2310   1.083       .  S
C2311      C2312   1.400       .  A
C2311      C2316   1.401       .  A
C2312      C2313   1.390       .  A
C2312      H2325   1.083       .  S
C2313      C2314   1.413       .  A
C2313      H2326   1.076       .  S
C2314      C2320   1.425       .  A
C2314      C2315   1.422       .  A
C2315      C2317   1.400       .  A
C2315      C2316   1.405       .  A
C2316      H2327   1.084       .  S
C2317      C2318   1.390       .  A
C2317      H2328   1.084       .  S
C2318      C2319   1.400       .  A
C2318      H2329   1.084       .  S
C2319      C2320   1.423       .  A
C2319      C2324   1.405       .  A
C2320      C2321   1.414       .  A
C2321      C2322   1.390       .  A
C2321      H2330   1.076       .  S
C2322      C2323   1.398       .  A
C2322      H2331   1.084       .  S
C2323      C2324   1.400       .  A
C2324      H2332   1.084       .  S
C2333      C2334   1.401       .  A
C2333      C2338   1.401       .  A
C2334      C2335   1.393       .  A
C2334      H2347   1.083       .  S
C2335      C2336   1.413       .  A
C2335      H2348   1.077       .  S
C2336      C2337   1.422       .  A
C2337      C2338   1.403       .  A
C2338      H2349   1.084       .  S
C2339      C2340   1.389       .  A
C2339      H2350   1.084       .  S
C2340      C2341   1.399       .  A
C2340      H2351   1.084       .  S
C2341      C2342   1.423       .  A
C2341      C2346   1.403       .  A
C2342      C2343   1.415       .  A
C2343      C2344   1.393       .  A
C2344      C2345   1.398       .  A
C2344      H2353   1.084       .  S
C2345      C2346   1.398       .  A
C2346      H2354   1.085       .  S
C2355      C2356   1.400       .  A
C2355      C2360   1.401       .  A
C2356      C2357   1.394       .  A
C2356      H2369   1.083       .  S
C2357      C2358   1.414       .  A
C2358      C2359   1.422       .  A
C2359      C2361   1.399       .  A
C2359      C2360   1.402       .  A
C2360      H2371   1.085       .  S
C2361      H2372   1.084       .  S
C2362      C2363   1.399       .  A
C2362      H2373   1.084       .  S
C2363      C2364   1.422       .  A
C2363      C2368   1.400       .  A
C2364      C2365   1.416       .  A
C2365      C2366   1.395       .  A
C2365      H2374   1.077       .  S
C2366      C2367   1.398       .  A
C2366      H2375   1.083       .  S
C2367      C2368   1.400       .  A
C2368      H2376   1.085       .  S
C2377      C2378   1.399       .  A
C2377      C2382   1.401       .  A
C2378      C2379   1.394       .  A
C2378      H2391   1.083       .  S
C2379      C2380   1.416       .  A
C2379      H2392   1.077       .  S
C2380      C2386   1.426       .  A
C2380      C2381   1.421       .  A
C2381      C2383   1.399       .  A
C2381      C2382   1.400       .  A
C2382      H2393   1.084       .  S
C2383      C2384   1.388       .  A
C2383      H2394   1.084       .  S
C2384      C2385   1.398       .  A
C2384      H2395   1.084       .  S
C2385      C2386   1.423       .  A
C2385      C2390   1.404       .  A
C2386      C2387   1.412       .  A
C2387      C2388   1.391       .  A
C2387      H2396   1.077       .  S
C2388      C2389   1.402       .  A
C2388      H2397   1.083       .  S
C2389      C2390   1.400       .  A
C2390      H2398   1.084       .  S
C2399      C2400   1.400       .  A
C2399      C2404   1.404       .  A
C2400      C2401   1.393       .  A
C2400      H2413   1.083       .  S
C2401      C2402   1.415       .  A
C2401      H2414   1.076       .  S
C2402      C2408   1.428       .  A
C2402      C2403   1.421       .  A
C2403      C2405   1.401       .  A
C2403      C2404   1.407       .  A
C2404      H2415   1.084       .  S
C2405      C2406   1.392       .  A
C2405      H2416   1.084       .  S
C2406      C2407   1.400       .  A
C2406      H2417   1.084       .  S
C2407      C2408   1.423       .  A
C2407      C2412   1.410       .  A
C2408      C2409   1.411       .  A
C2409      C2410   1.390       .  A
C2409      H2418   1.076       .  S
C2410      C2411   1.402       .  A
C2410      H2419   1.083       .  S
C2411      C2412   1.403       .  A
C2412      H2420   1.084       .  S
C2421      C2422   1.400       .  A
C2421      C2426   1.401       .  A
C2422      C2423   1.397       .  A
C2422      H2435   1.083       .  S
C2423      C2424   1.415       .  A
C2423      H2436   1.077       .  S
C2424      C2430   1.430       .  A
C2424      C2425   1.422       .  A
C2425      C2427   1.399       .  A
C2425      C2426   1.404       .  A
C2426      H2437   1.085       .  S
C2427      C2428   1.389       .  A
C2427      H2438   1.084       .  S
C2428      C2429   1.400       .  A
C2428      H2439   1.084       .  S
C2429      C2430   1.422       .  A
C2429      C2434   1.404       .  A
C2430      C2431   1.415       .  A
C2431      C2432   1.397       .  A
C2431      H2440   1.077       .  S
C2432      C2433   1.401       .  A
C2432      H2441   1.083       .  S
C2433      C2434   1.403       .  A
C2434      H2442   1.084       .  S
C2443      C2444   1.401       .  A
C2443      C2448   1.403       .  A
C2444      C2445   1.392       .  A
C2444      H2457   1.083       .  S
C2445      C2446   1.413       .  A
C2445      H2458   1.077       .  S
C2446      C2452   1.428       .  A
C2446      C2447   1.422       .  A
C2447      C2449   1.400       .  A
C2447      C2448   1.408       .  A
C2448      H2459   1.084       .  S
C2449      C2450   1.392       .  A
C2449      H2460   1.084       .  S
C2450      C2451   1.400       .  A
C2450      H2461   1.084       .  S
C2451      C2452   1.423       .  A
C2451      C2456   1.408       .  A
C2452      C2453   1.414       .  A
C2453      C2454   1.391       .  A
C2453      H2462   1.077       .  S
C2454      C2455   1.398       .  A
C2454      H2463   1.084       .  S
C2455      C2456   1.401       .  A
C2456      H2464   1.085       .  S
C2465      C2466   1.400       .  A
C2465      C2470   1.399       .  A
C2466      C2467   1.398       .  A
C2466      H2479   1.083       .  S
C2467      C2468   1.416       .  A
C2467      H2480   1.078       .  S
C2468      C2469   1.423       .  A
C2469      C2470   1.400       .  A
C2470      H2481   1.085       .  S
C2471      C2472   1.386       .  A
C2471      H2482   1.084       .  S
C2472      C2473   1.398       .  A
C2472      H2483   1.084       .  S
C2473      C2474   1.421       .  A
C2473      C2478   1.399       .  A
C2474      C2475   1.416       .  A
C2475      C2476   1.399       .  A
C2476      C2477   1.401       .  A
C2476      H2485   1.083       .  S
C2477      C2478   1.401       .  A
C2478      H2486   1.085       .  S
C2487      C2488   1.400       .  A
C2487      C2492   1.401       .  A
C2488      C2489   1.394   1_565  A
C2488      H2501   1.084       .  S
C2489      C2490   1.415   1_545  A
C2490      C2491   1.422       .  A
C2491      C2493   1.399       .  A
C2491      C2492   1.405       .  A
C2492      H2503   1.084       .  S
C2493      C2494   1.390       .  A
C2493      H2504   1.084       .  S
C2494      H2505   1.084       .  S
C2495      C2496   1.423       .  A
C2495      C2500   1.405       .  A
C2496      C2497   1.413       .  A
C2497      C2498   1.393       .  A
C2497      H2506   1.077       .  S
C2498      C2499   1.402       .  A
C2498      H2507   1.083       .  S
C2499      C2500   1.400       .  A
C2500      H2508   1.084       .  S
C2509      C2510   1.403       .  A
C2509      C2514   1.403       .  A
C2510      C2511   1.396       .  A
C2510      H2523   1.083       .  S
C2511      C2512   1.413       .  A
C2511      H2524   1.077       .  S
C2512      C2513   1.424       .  A
C2513      C2514   1.410       .  A
C2514      H2525   1.084       .  S
C2515      C2516   1.391   1_545  A
C2515      H2526   1.084       .  S
C2516      C2517   1.401       .  A
C2516      H2527   1.084       .  S
C2517      C2518   1.421       .  A
C2517      C2522   1.406       .  A
C2518      C2519   1.417       .  A
C2519      C2520   1.400       .  A
C2520      C2521   1.400       .  A
C2520      H2529   1.083       .  S
C2521      C2522   1.406       .  A
C2522      H2530   1.084       .  S
C2531      C2532   1.400       .  A
C2531      C2536   1.402       .  A
C2532      C2533   1.397       .  A
C2532      H2545   1.083       .  S
C2533      C2534   1.416       .  A
C2533      H2546   1.077       .  S
C2534      C2540   1.429       .  A
C2534      C2535   1.421       .  A
C2535      C2537   1.399       .  A
C2535      C2536   1.402       .  A
C2536      H2547   1.084       .  S
C2537      C2538   1.388       .  A
C2537      H2548   1.084       .  S
C2538      C2539   1.398       .  A
C2538      H2549   1.084       .  S
C2539      C2540   1.424       .  A
C2539      C2544   1.404       .  A
C2540      C2541   1.413       .  A
C2541      C2542   1.394       .  A
C2541      H2550   1.077       .  S
C2542      C2543   1.402       .  A
C2542      H2551   1.083       .  S
C2543      C2544   1.400       .  A
C2544      H2552   1.085       .  S
C2553      C2554   1.399       .  A
C2553      C2558   1.406       .  A
C2554      C2555   1.395       .  A
C2554      H2567   1.083       .  S
C2555      C2556   1.416       .  A
C2555      H2568   1.076       .  S
C2556      C2562   1.429       .  A
C2556      C2557   1.420       .  A
C2557      C2559   1.401       .  A
C2557      C2558   1.405       .  A
C2558      H2569   1.084       .  S
C2559      C2560   1.392       .  A
C2559      H2570   1.084       .  S
C2560      C2561   1.400       .  A
C2560      H2571   1.084       .  S
C2561      C2562   1.424       .  A
C2561      C2566   1.410       .  A
C2562      C2563   1.411       .  A
C2563      C2564   1.391       .  A
C2563      H2572   1.076       .  S
C2564      C2565   1.402       .  A
C2564      H2573   1.083       .  S
C2565      C2566   1.404       .  A
C2566      H2574   1.084       .  S
C2575      C2576   1.402       .  A
C2575      C2580   1.403       .  A
C2576      C2577   1.395       .  A
C2576      H2589   1.083       .  S
C2577      C2578   1.414       .  A
C2577      H2590   1.077       .  S
C2578      C2584   1.432       .  A
C2578      C2579   1.423       .  A
C2579      C2581   1.400       .  A
C2579      C2580   1.411       .  A
C2580      H2591   1.084       .  S
C2581      C2582   1.393       .  A
C2581      H2592   1.084       .  S
C2582      C2583   1.401       .  A
C2582      H2593   1.084       .  S
C2583      C2584   1.423       .  A
C2583      C2588   1.410       .  A
C2584      C2585   1.416       .  A
C2585      C2586   1.396       .  A
C2585      H2594   1.077       .  S
C2586      C2587   1.398       .  A
C2586      H2595   1.084       .  S
C2587      C2588   1.401       .  A
C2588      H2596   1.085       .  S
C2597      C2598   1.401       .  A
C2597      C2602   1.400       .  A
C2598      C2599   1.392       .  A
C2598      H2611   1.083       .  S
C2599      C2600   1.412       .  A
C2600      C2601   1.424       .  A
C2601      C2603   1.399   1_565  A
C2601      C2602   1.405       .  A
C2602      H2613   1.084       .  S
C2603      C2604   1.389       .  A
C2603      H2614   1.084   1_545  S
C2604      H2615   1.084       .  S
C2605      C2606   1.421       .  A
C2605      C2610   1.402       .  A
C2606      C2607   1.416       .  A
C2607      C2608   1.396       .  A
C2607      H2616   1.077       .  S
C2608      C2609   1.400       .  A
C2608      H2617   1.083       .  S
C2609      C2610   1.402       .  A
C2610      H2618   1.084       .  S
C2619      C2620   1.401       .  A
C2619      C2624   1.401       .  A
C2620      C2621   1.402       .  A
C2620      H2633   1.083       .  S
C2621      C2622   1.417       .  A
C2621      H2634   1.078       .  S
C2622      C2623   1.423       .  A
C2623      C2624   1.406       .  A
C2624      H2635   1.085       .  S
C2625      C2626   1.390       .  A
C2625      H2636   1.084       .  S
C2626      C2627   1.399       .  A
C2626      H2637   1.084       .  S
C2627      C2628   1.423       .  A
C2627      C2632   1.407       .  A
C2628      C2629   1.417       .  A
C2629      C2630   1.402       .  A
C2630      C2631   1.401       .  A
C2630      H2639   1.083       .  S
C2631      C2632   1.401       .  A
C2632      H2640   1.085       .  S
C2641      C2642   1.402       .  A
C2641      C2646   1.403       .  A
C2642      C2643   1.398       .  A
C2642      H2655   1.083       .  S
C2643      C2644   1.415       .  A
C2643      H2656   1.078       .  S
C2644      C2650   1.431       .  A
C2644      C2645   1.422       .  A
C2645      C2647   1.399       .  A
C2645      C2646   1.404       .  A
C2646      H2657   1.084       .  S
C2647      C2648   1.389       .  A
C2647      H2658   1.084       .  S
C2648      C2649   1.399       .  A
C2648      H2659   1.084       .  S
C2649      C2650   1.422       .  A
C2649      C2654   1.404       .  A
C2650      C2651   1.416       .  A
C2651      C2652   1.399       .  A
C2651      H2660   1.078       .  S
C2652      C2653   1.400       .  A
C2652      H2661   1.083       .  S
C2653      C2654   1.401       .  A
C2654      H2662   1.085       .  S
C2663      C2664   1.400       .  A
C2663      C2668   1.403       .  A
C2664      C2665   1.400       .  A
C2664      H2677   1.083       .  S
C2665      C2666   1.417       .  A
C2665      H2678   1.078       .  S
C2666      C2672   1.432       .  A
C2666      C2667   1.421       .  A
C2667      C2669   1.400       .  A
C2667      C2668   1.405       .  A
C2668      H2679   1.085       .  S
C2669      C2670   1.390       .  A
C2669      H2680   1.084       .  S
C2670      C2671   1.400       .  A
C2670      H2681   1.084       .  S
C2671      C2672   1.423       .  A
C2671      C2676   1.407       .  A
C2672      C2673   1.414       .  A
C2673      C2674   1.398       .  A
C2673      H2682   1.078       .  S
C2674      C2675   1.402       .  A
C2674      H2683   1.083       .  S
C2675      C2676   1.403       .  A
C2676      H2684   1.084       .  S
C2685      C2686   1.399   1_455  A
C2686      C2687   1.391       .  A
C2686      H2699   1.083       .  S
C2687      C2688   1.413       .  A
C2689      C2691   1.400   1_556  A
C2689      C2690   1.405       .  A
C2690      H2701   1.084       .  S
C2691      C2692   1.391       .  A
C2691      H2702   1.084       .  S
C2692      H2703   1.084       .  S
C2693      C2698   1.406       .  A
C2694      C2695   1.412       .  A
C2695      C2696   1.389       .  A
C2695      H2704   1.077       .  S
C2696      C2697   1.401       .  A
C2696      H2705   1.083       .  S
C2698      H2706   1.084       .  S
C2707      C2712   1.403   1_455  A
C2708      C2709   1.393       .  A
C2708      H2721   1.083       .  S
C2709      C2710   1.415       .  A
C2709      H2722   1.077       .  S
C2710      C2716   1.426   1_556  A
C2711      C2713   1.400   1_556  A
C2711      C2712   1.403       .  A
C2712      H2723   1.084       .  S
C2713      C2714   1.390       .  A
C2713      H2724   1.084       .  S
C2714      C2715   1.399       .  A
C2714      H2725   1.084       .  S
C2715      C2720   1.406       .  A
C2716      C2717   1.412       .  A
C2717      C2718   1.390       .  A
C2717      H2726   1.077       .  S
C2718      H2727   1.083       .  S
C2719      C2720   1.402       .  A
C2720      H2728   1.084       .  S
C2729      C2730   1.401       .  A
C2729      C2734   1.401       .  A
C2730      C2731   1.400       .  A
C2730      H2743   1.083       .  S
C2731      C2732   1.416       .  A
C2731      H2744   1.078       .  S
C2732      C2738   1.432       .  A
C2732      C2733   1.423       .  A
C2733      C2735   1.399       .  A
C2733      C2734   1.403       .  A
C2734      H2745   1.085       .  S
C2735      C2736   1.388       .  A
C2735      H2746   1.084       .  S
C2736      C2737   1.399       .  A
C2736      H2747   1.084       .  S
C2737      C2738   1.422       .  A
C2737      C2742   1.402       .  A
C2738      C2739   1.417       .  A
C2739      C2740   1.400       .  A
C2739      H2748   1.078       .  S
C2740      C2741   1.401       .  A
C2740      H2749   1.083       .  S
C2741      C2742   1.401       .  A
C2742      H2750   1.085       .  S
C2751      C2752   1.402       .  A
C2751      C2756   1.402       .  A
C2752      C2753   1.400       .  A
C2752      H2765   1.083       .  S
C2753      C2754   1.416       .  A
C2753      H2766   1.078       .  S
C2754      C2760   1.432       .  A
C2754      C2755   1.422       .  A
C2755      C2757   1.399       .  A
C2755      C2756   1.405       .  A
C2756      H2767   1.084       .  S
C2757      C2758   1.389       .  A
C2757      H2768   1.084       .  S
C2758      C2759   1.399       .  A
C2758      H2769   1.084       .  S
C2759      C2760   1.423       .  A
C2759      C2764   1.406       .  A
C2760      C2761   1.415       .  A
C2761      C2762   1.399       .  A
C2761      H2770   1.078       .  S
C2762      C2763   1.402       .  A
C2762      H2771   1.083       .  S
C2763      C2764   1.401       .  A
C2764      H2772   1.085       .  S
C2773      C2774   1.401       .  A
C2773      C2778   1.403       .  A
C2774      C2775   1.398       .  A
C2774      H2787   1.083       .  S
C2775      C2776   1.415       .  A
C2776      C2777   1.422       .  A
C2777      C2779   1.400       .  A
C2777      C2778   1.405       .  A
C2778      H2789   1.084       .  S
C2779      C2780   1.390       .  A
C2779      H2790   1.084       .  S
C2780      H2791   1.084       .  S
C2781      C2782   1.422       .  A
C2781      C2786   1.404       .  A
C2782      C2783   1.415       .  A
C2783      C2784   1.397       .  A
C2783      H2792   1.078       .  S
C2784      C2785   1.401       .  A
C2784      H2793   1.083       .  S
C2785      C2786   1.402       .  A
C2786      H2794   1.085       .  S
C2795      C2796   1.400       .  A
C2795      C2800   1.400       .  A
C2796      C2797   1.400       .  A
C2796      H2809   1.084       .  S
C2797      C2798   1.417       .  A
C2798      C2799   1.422       .  A
C2799      C2801   1.399       .  A
C2799      C2800   1.403       .  A
C2800      H2811   1.085       .  S
C2801      C2802   1.389       .  A
C2801      H2812   1.084       .  S
C2802      H2813   1.084       .  S
C2803      C2804   1.423       .  A
C2803      C2808   1.405       .  A
C2804      C2805   1.414       .  A
C2805      C2806   1.398       .  A
C2805      H2814   1.078       .  S
C2806      C2807   1.403       .  A
C2806      H2815   1.083       .  S
C2807      C2808   1.403       .  A
C2808      H2816   1.084       .  S
