geometry optimzed in LAMMPS
_audit_creation_date              2020-12-01 
_audit_creation_method            'lammps2cif' 
_symmetry_space_group_name_H-M    'P1' 
_symmetry_Int_Tables_number       1 
_symmetry_cell_setting            triclinic 
loop_ 
_symmetry_equiv_pos_as_xyz 
  x,y,z 
_cell_length_a                    39.31082188 
_cell_length_b                    39.51448557124167 
_cell_length_c                    57.46218317021186 
_cell_angle_alpha                 77.32436863905244 
_cell_angle_beta                  92.91030711049575 
_cell_angle_gamma                 119.84159770442842 
loop_ 
_atom_site_label 
_atom_site_type_symbol 
_atom_site_fract_x 
_atom_site_fract_y 
_atom_site_fract_z 
_atom_site_charge 
Zr1        Zr  0.96989109  0.06592518  0.35505665     2.17500
O2          O  0.92367837  0.05971528  0.38473180    -0.51200
O3          O  0.99290874  0.13700085  0.34267809    -0.74400
O4          O  0.99836042  0.07844918  0.39339817    -0.81200
O5          O  0.89341916  0.04092605  0.30901202    -0.83000
O6          O  0.04901748  0.06568589  0.39773287    -0.78600
O7          O  0.90650038  0.05886892  0.34484397    -0.90200
O8          O  0.04094049  0.16489012  0.31298214    -0.76200
O9          O  0.03845013  0.09298707  0.34704238    -0.85700
O10         O  0.98023646  0.08428094  0.31242698    -0.85400
O11         O  0.98247775  0.01288352  0.37355681    -0.72100
O12         O  0.92956457  0.00603217  0.34080887    -0.84300
Zr13       Zr  0.02302774  0.99805619  0.30807131     2.26400
Zr14       Zr  0.05113836  0.03941059  0.36388862     2.06300
Zr15       Zr  0.94167520  0.02397918  0.29830939     2.10000
Zr16       Zr  0.04871380  0.11110456  0.30467663     1.78800
O17         O  0.88010902  0.96278977  0.29720544    -0.93100
O18         O  0.11396028  0.15713853  0.31524776    -0.40900
O19         O  0.01060896  0.05137736  0.29001097    -0.77500
O20         O  0.06396270  0.05930281  0.32120131    -0.96200
O21         O  0.01165019  0.97911623  0.35033031    -0.89500
O22         O  0.95421415  0.97076016  0.31584158    -0.92300
C23         C  0.01851014  0.16711960  0.32734938     1.01400
C24         C  0.88533892  0.05094191  0.32692503     1.14300
C25         C  0.02650669  0.07663659  0.40499904     1.05100
O26         O  0.11745340  0.08951657  0.37013544    -0.94500
O27         O  0.10023385  0.02268759  0.35537077    -0.90200
O28         O  0.08616339  0.00462042  0.31967611    -0.83400
C29         C  0.10777482  0.01249541  0.33742206     1.11800
O30         O  0.88687663  0.93801734  0.38334084    -0.96500
Zr31       Zr  0.94344697  0.95403495  0.35840426     1.88900
O32         O  0.99421530  0.92553062  0.31974508    -0.73100
O33         O  0.04701472  0.98921760  0.39870725    -0.52400
O34         O  0.95141801  0.92605401  0.39911760    -0.97100
O35         O  0.88052378  0.89903591  0.35127615    -0.54300
O36         O  0.95577663  0.90184523  0.35413878    -0.73600
C37         C  0.97374738  0.89784669  0.33795677     0.98700
O38         O  0.05597385  0.98629990  0.27840704    -0.62500
O39         O  0.92628074  0.05903278  0.26273827    -0.57300
O40         O  0.00801289  0.00147230  0.26641289    -0.93900
O41         O  0.95683036  0.01306801  0.26055807    -0.92400
O42         O  0.03870699  0.14117984  0.26512449    -0.92700
O43         O  0.10108454  0.13592817  0.27388514    -0.91500
C44         C  0.98265304  0.00604221  0.25319183     1.17500
H45         H  0.97215267  0.10350415  0.30542995     0.33500
H46         H  0.09141250  0.07023072  0.31690624     0.44300
H47         H  0.93924991  0.94781849  0.30886650     0.37900
H48         H  0.97686810  0.00598988  0.39066974     0.34400
H49         H  0.11953053  0.18396282  0.30619408     0.26100
H50         H  0.07245327  0.00253995  0.40595116     0.32100
H51         H  0.93346482  0.89683642  0.40138388     0.38000
H52         H  0.01200726  0.12144187  0.26172420     0.32400
H53         H  0.89726031  0.04629502  0.26354979     0.31300
H54         H  0.85984287  0.97091945  0.29532547     0.33000
H55         H  0.87900656  0.87463871  0.36161832     0.32000
H56         H  0.09505659  0.11222510  0.26763816     0.36000
H57         H  0.08238098  0.01039801  0.27454666     0.28700
H58         H  0.93759951  0.08360017  0.39170549     0.32900
H59         H  0.89626330  0.96098675  0.39101902     0.35800
H60         H  0.93579806  0.08614290  0.26541225     0.28400
H61         H  0.06073381  0.96449391  0.28686718     0.41300
H62         H  0.11642687  0.11448102  0.36823745     0.31300
H63         H  0.11031362  0.15736482  0.33211323     0.38900
H64         H  0.88356021  0.89674196  0.33479969     0.30800
H65         H  0.02745366  0.98662677  0.41018015     0.30900
H66         H  0.91984573  0.03685576  0.39775545     0.31100
Zr67       Zr  0.97236152  0.55656392  0.35987180     2.17500
O68         O  0.92337630  0.52883850  0.39331164    -0.51200
O69         O  0.98461268  0.62438570  0.35563105    -0.74400
O70         O  0.00116825  0.56572359  0.39813731    -0.81200
O71         O  0.89259529  0.52890141  0.31583299    -0.83000
O72         O  0.05654301  0.56119336  0.39720047    -0.78600
O73         O  0.90584515  0.54348278  0.35250330    -0.90200
O74         O  0.02616599  0.66431657  0.32289544    -0.76200
O75         O  0.04080416  0.59906745  0.34827195    -0.85700
O76         O  0.97657964  0.58218806  0.31788606    -0.85400
O77         O  0.00038157  0.51359640  0.37017718    -0.72100
O78         O  0.94038588  0.49889066  0.34253999    -0.84300
Zr79       Zr  0.04346430  0.52467188  0.29829226     2.26400
Zr80       Zr  0.06892219  0.55640097  0.35733425     2.06300
Zr81       Zr  0.94681863  0.52515713  0.30044470     2.10000
Zr82       Zr  0.04475090  0.62383149  0.30625523     1.78800
O83         O  0.89334088  0.45953831  0.29719918    -0.93100
O84         O  0.10911306  0.67596803  0.31384046    -0.40900
O85         O  0.01514247  0.56722151  0.28839959    -0.77500
O86         O  0.07504312  0.58308977  0.31513453    -0.96200
O87         O  0.03848948  0.49892242  0.34019616    -0.89500
O88         O  0.97494546  0.48261348  0.30963113    -0.92300
C89         C  0.00378191  0.65816595  0.34069046     1.01400
C90         C  0.88363947  0.53517037  0.33501656     1.14300
C91         C  0.03086326  0.56466593  0.40784006     1.05100
O92         O  0.12358149  0.62245066  0.35864578    -0.94500
O93         O  0.12403618  0.55356229  0.34178756    -0.90200
O94         O  0.11189700  0.54323183  0.30426515    -0.83400
C95         C  0.13419750  0.55036541  0.32177850     1.11800
O96         O  0.92034780  0.42440612  0.38497667    -0.96500
Zr97       Zr  0.97018354  0.45782098  0.35167251     1.88900
O98         O  0.03585565  0.45770860  0.30550408    -0.73100
O99         O  0.09545337  0.52258087  0.38671342    -0.52400
O100        O  0.99089895  0.42620239  0.38625102    -0.97100
O101        O  0.91157966  0.40273388  0.34041290    -0.54300
O102        O  0.99179861  0.41820229  0.33739630    -0.73600
C103        C  0.01583394  0.42430111  0.32069748     0.98700
O104        O  0.08102359  0.54401598  0.26050319    -0.62500
O105        O  0.92321335  0.55715242  0.26773082    -0.57300
O106        O  0.01558448  0.51988351  0.25949002    -0.93900
O107        O  0.96225396  0.52802457  0.25979500    -0.92400
O108        O  0.02361044  0.65837678  0.27352205    -0.92700
O109        O  0.08719750  0.65621448  0.26949195    -0.91500
C110        C  0.98791551  0.52458830  0.24926452     1.17500
H111        H  0.96286084  0.59711058  0.31405215     0.33500
H112        H  0.10242561  0.59984831  0.30945767     0.44300
H113        H  0.96314239  0.46117528  0.30121500     0.37900
H114        H  0.99673888  0.50248279  0.38717331     0.34400
H115        H  0.11260985  0.70087861  0.30300725     0.26100
H116        H  0.10938943  0.54080420  0.39760279     0.32100
H117        H  0.97523365  0.39718604  0.38668950     0.38000
H118        H  0.99698075  0.65159488  0.27887932     0.32400
H119        H  0.89436606  0.54376196  0.27081846     0.31300
H120        H  0.86971788  0.46251680  0.29576901     0.33000
H121        H  0.89022015  0.40858115  0.34215341     0.32000
H122        H  0.08817138  0.63425887  0.26448313     0.36000
H123        H  0.10428663  0.57062217  0.26028840     0.28700
H124        H  0.93055449  0.55079334  0.40157084     0.32900
H125        H  0.91164686  0.44374764  0.38578082     0.35800
H126        H  0.93349395  0.58452782  0.27017317     0.28400
H127        H  0.09151878  0.52558116  0.26186044     0.41300
H128        H  0.11697854  0.62918756  0.37274927     0.31300
H129        H  0.10563132  0.67901606  0.33004933     0.38900
H130        H  0.90541177  0.37903323  0.35343551     0.30800
H131        H  0.07217399  0.49952146  0.39644225     0.30900
H132        H  0.92816426  0.50904993  0.40462652     0.31100
Zr133      Zr  0.46608585  0.06694833  0.35318373     2.17500
O134        O  0.41443635  0.04352788  0.38435004    -0.51200
O135        O  0.47835679  0.13511798  0.34470316    -0.74400
O136        O  0.49061765  0.07689784  0.39276525    -0.81200
O137        O  0.38971014  0.03486781  0.30633313    -0.83000
O138        O  0.54448826  0.06931527  0.39641758    -0.78600
O139        O  0.39925513  0.04951317  0.34291169    -0.90200
O140        O  0.52851779  0.17312688  0.31588128    -0.76200
O141        O  0.53571058  0.10626393  0.34542455    -0.85700
O142        O  0.47794796  0.09291088  0.31094389    -0.85400
O143        O  0.49007869  0.02143381  0.36753653    -0.72100
O144        O  0.43593530  0.00999402  0.33532862    -0.84300
Zr145      Zr  0.54256855  0.02900114  0.29956321     2.26400
Zr146      Zr  0.55997154  0.06099273  0.35862725     2.06300
Zr147      Zr  0.44897922  0.03632432  0.29315586     2.10000
Zr148      Zr  0.54754102  0.13076824  0.30326579     1.78800
O149        O  0.39665265  0.97441848  0.28422808    -0.93100
O150        O  0.60788367  0.18152486  0.31621387    -0.40900
O151        O  0.51891685  0.07472714  0.28503992    -0.77500
O152        O  0.57374708  0.08718960  0.31632988    -0.96200
O153        O  0.53063331  0.00338040  0.34156203    -0.89500
O154        O  0.47283861  0.99057624  0.30672666    -0.92300
C155        C  0.50230153  0.16823973  0.33055441     1.01400
C156        C  0.37783197  0.03963823  0.32523289     1.14300
C157        C  0.51843949  0.07486539  0.40467198     1.05100
O158        O  0.61571465  0.12436292  0.36334573    -0.94500
O159        O  0.61741533  0.05818937  0.34834334    -0.90200
O160        O  0.60672312  0.04022536  0.31259954    -0.83400
C161        C  0.62762836  0.04990359  0.33046586     1.11800
O162        O  0.40385158  0.93458184  0.37704369    -0.96500
Zr163      Zr  0.46113556  0.96568828  0.34893875     1.88900
O164        O  0.52658628  0.95965792  0.30647962    -0.73100
O165        O  0.57624007  0.02091468  0.39081084    -0.52400
O166        O  0.47191954  0.93483441  0.38802042    -0.97100
O167        O  0.40446728  0.91058664  0.33614287    -0.54300
O168        O  0.48502763  0.92419517  0.33969765    -0.73600
C169        C  0.50741435  0.92776035  0.32281573     0.98700
O170        O  0.58855497  0.04172546  0.26740524    -0.62500
O171        O  0.43350412  0.07736590  0.26109470    -0.57300
O172        O  0.52533165  0.03141867  0.25823649    -0.93900
O173        O  0.47016548  0.03666318  0.25409590    -0.92400
O174        O  0.53260309  0.16634335  0.26774831    -0.92700
O175        O  0.59894041  0.16540929  0.27085193    -0.91500
C176        C  0.49884437  0.03504737  0.24569682     1.17500
H177        H  0.46595551  0.10910459  0.30530580     0.33500
H178        H  0.60166635  0.10228384  0.31222255     0.44300
H179        H  0.46190015  0.96927527  0.29819183     0.37900
H180        H  0.48380053  0.01081499  0.38454861     0.34400
H181        H  0.60187323  0.17877086  0.33326775     0.26100
H182        H  0.58841196  0.03756874  0.40271251     0.32100
H183        H  0.45782795  0.90581463  0.38841465     0.38000
H184        H  0.51090346  0.14500204  0.26105868     0.32400
H185        H  0.40671509  0.05886355  0.25705898     0.31300
H186        H  0.38640589  0.95572358  0.30003035     0.33000
H187        H  0.39824814  0.88667240  0.34899755     0.32000
H188        H  0.61204965  0.14924021  0.27239133     0.36000
H189        H  0.61268905  0.06719549  0.26821904     0.28700
H190        H  0.42172682  0.06641789  0.39176552     0.32900
H191        H  0.40853561  0.95546475  0.38568292     0.35800
H192        H  0.43021555  0.09586943  0.26866583     0.28400
H193        H  0.59612922  0.02083601  0.27205269     0.37700
H194        H  0.62580223  0.11770094  0.37879237     0.31300
H195        H  0.62689730  0.17195906  0.31643759     0.38900
H196        H  0.41453644  0.90613399  0.32233406     0.30800
H197        H  0.55054562  0.99889098  0.39863157     0.30900
H198        H  0.41718534  0.02350224  0.39684014     0.31100
Zr199      Zr  0.47948020  0.57839418  0.34959785     2.17500
O200        O  0.42914040  0.57176509  0.37633040    -0.51200
O201        O  0.50453723  0.65033763  0.34078113    -0.74400
O202        O  0.49946836  0.58273542  0.39063459    -0.81200
O203        O  0.41122084  0.55928786  0.29716989    -0.83000
O204        O  0.55079233  0.57114388  0.39611313    -0.78600
O205        O  0.41707491  0.57046900  0.33475922    -0.90200
O206        O  0.55451518  0.68321116  0.31192554    -0.76200
O207        O  0.54893523  0.60707145  0.34543948    -0.85700
O208        O  0.49796402  0.60451249  0.30793368    -0.85400
O209        O  0.49105326  0.52379495  0.36616117    -0.72100
O210        O  0.44438913  0.52243971  0.33093792    -0.84300
Zr211      Zr  0.54731898  0.52400055  0.30108556     2.26400
Zr212      Zr  0.56087393  0.55275151  0.36094916     2.06300
Zr213      Zr  0.46503719  0.54908572  0.28932551     2.10000
Zr214      Zr  0.56725605  0.63269877  0.30374097     1.78800
O215        O  0.40449027  0.49642766  0.27805979    -0.93100
O216        O  0.62834970  0.67803535  0.31893621    -0.40900
O217        O  0.53469486  0.57763222  0.28465383    -0.77500
O218        O  0.58203383  0.58038203  0.31937128    -0.96200
O219        O  0.52756057  0.49702814  0.34258889    -0.89500
O220        O  0.47759501  0.49529030  0.30465779    -0.92300
C221        C  0.52978183  0.68218515  0.32617287     1.01400
C222        C  0.39911732  0.56520632  0.31537015     1.14300
C223        C  0.52645549  0.57999311  0.40316389     1.05100
O224        O  0.62251811  0.60320600  0.37248625    -0.94500
O225        O  0.61343698  0.53999233  0.35437806    -0.90200
O226        O  0.60584838  0.52403982  0.31809792    -0.83400
C227        C  0.62413698  0.53052178  0.33726830     1.11800
O228        O  0.40490981  0.44724597  0.37593944    -0.96500
Zr229      Zr  0.45821784  0.46953447  0.34621744     1.88900
O230        O  0.52232863  0.45251291  0.30792948    -0.73100
O231        O  0.55319489  0.50010085  0.39523801    -0.52400
O232        O  0.45656348  0.42438902  0.38311875    -0.97100
O233        O  0.39762455  0.42554788  0.32975548    -0.54300
O234        O  0.47248488  0.42106584  0.33695194    -0.73600
C235        C  0.49629178  0.42128099  0.32245418     0.98700
O236        O  0.59625152  0.53633732  0.27107476    -0.62500
O237        O  0.46884837  0.60202609  0.25653162    -0.57300
O238        O  0.53168139  0.52459641  0.25924879    -0.93900
O239        O  0.48144468  0.53777466  0.25288390    -0.92400
O240        O  0.56104982  0.66743315  0.26460762    -0.92700
O241        O  0.62318890  0.65818662  0.27546260    -0.91500
C242        C  0.50677341  0.53007172  0.24585859     1.17500
H243        H  0.48995578  0.62390693  0.30119321     0.33500
H244        H  0.61012449  0.59176982  0.31705315     0.44300
H245        H  0.46497911  0.47473537  0.29563676     0.37900
H246        H  0.48238757  0.51352058  0.38290233     0.34400
H247        H  0.63809345  0.70407554  0.30738836     0.26100
H248        H  0.55098615  0.47833772  0.38827358     0.32100
H249        H  0.47597115  0.44201527  0.39284831     0.38000
H250        H  0.57717604  0.69623760  0.26463547     0.32400
H251        H  0.49309064  0.61117320  0.24669825     0.31300
H252        H  0.39497576  0.51071521  0.26554222     0.33000
H253        H  0.40585153  0.42044647  0.31550819     0.32000
H254        H  0.61851153  0.63461833  0.26951282     0.36000
H255        H  0.62101766  0.55965571  0.27392604     0.28700
H256        H  0.44208901  0.59518322  0.38377280     0.32900
H257        H  0.38471793  0.42001402  0.37441190     0.35800
H258        H  0.44715199  0.58807808  0.24656547     0.28400
H259        H  0.60086758  0.51334150  0.27539638     0.41300
H260        H  0.62343241  0.62888109  0.36548134     0.31300
H261        H  0.62011571  0.68203899  0.33363152     0.38900
H262        H  0.38585478  0.44245200  0.32328701     0.30800
H263        H  0.57919503  0.51087454  0.40208455     0.30900
H264        H  0.42324389  0.54830174  0.38946425     0.31100
Zr265      Zr  0.02790895  0.99705539  0.02370143     2.17500
O266        O  0.03849359  0.95298267  0.05644420    -0.51200
O267        O  0.95932708  0.94556180  0.02099538    -0.74400
O268        O  0.01424072  0.99296389  0.06595066    -0.81200
O269        O  0.05894059  0.97361937  0.96986704    -0.83000
O270        O  0.02509156  0.05418187  0.06865250    -0.78600
O271        O  0.03880994  0.94951299  0.00917868    -0.90200
O272        O  0.93194879  0.97302698  0.99277525    -0.76200
O273        O  0.99488430  0.03459680  0.02004057    -0.85700
O274        O  0.01280413  0.00667628  0.98294620    -0.85400
O275        O  0.07541071  0.05945195  0.03338381    -0.72100
O276        O  0.08960964  0.03182331  0.99985968    -0.84300
Zr277      Zr  0.08667801  0.14200224  0.96521761     2.26400
Zr278      Zr  0.04228612  0.09725615  0.02909756     2.06300
Zr279      Zr  0.07352889  0.04258428  0.95906730     2.10000
Zr280      Zr  0.97976323  0.04374295  0.97920919     1.78800
O281        O  0.13376117  0.04509473  0.94774684    -0.93100
O282        O  0.92417211  0.04154251  0.99785109    -0.40900
O283        O  0.04032015  0.08019800  0.95477287    -0.77500
O284        O  0.02480247  0.10693157  0.98860849    -0.96200
O285        O  0.10345881  0.13319941  0.00557516    -0.89500
O286        O  0.12002763  0.10494992  0.96840502    -0.92300
C287        C  0.93095561  0.94333576  0.00792424     1.01400
C288        C  0.04765049  0.94583430  0.98899638     1.14300
C289        C  0.01654067  0.01806912  0.07787418     1.05100
O290        O  0.98192807  0.09273727  0.04215721    -0.94500
O291        O  0.05420177  0.16518307  0.01875990    -0.90200
O292        O  0.07778881  0.19046966  0.97980912    -0.83400
C293        C  0.06662842  0.19297975  0.99964563     1.11800
O294        O  0.15890938  0.05698445  0.03744665    -0.96500
Zr295      Zr  0.13561794  0.09508436  0.00890116     1.88900
O296        O  0.15524914  0.19267384  0.96587544    -0.73100
O297        O  0.08112703  0.13569909  0.05800471    -0.52400
O298        O  0.16346448  0.12197617  0.04391344    -0.97100
O299        O  0.18613425  0.08758802  0.99154428    -0.54300
O300        O  0.18410310  0.16489533  0.99250088    -0.73600
C301        C  0.18477842  0.19453522  0.97737324     0.98700
O302        O  0.07535249  0.18611663  0.93295698    -0.62500
O303        O  0.03547755  0.00793962  0.92852156    -0.57300
O304        O  0.10195145  0.14795035  0.92352513    -0.93900
O305        O  0.09378752  0.08817932  0.91980536    -0.92400
O306        O  0.95749590  0.02045503  0.94246252    -0.92700
O307        O  0.95458383  0.08292595  0.95351172    -0.91500
C308        C  0.10211950  0.12453859  0.91123024     1.17500
H309        H  0.99667548  0.98148182  0.97836243     0.33500
H310        H  0.01216782  0.12290710  0.98627095     0.44300
H311        H  0.14324764  0.11913568  0.95750493     0.37900
H312        H  0.08254926  0.05476862  0.04962346     0.34400
H313        H  0.90074089  0.02189124  0.99118535     0.26100
H314        H  0.06163871  0.13234783  0.06985535     0.32100
H315        H  0.15970914  0.14534446  0.04230991     0.38000
H316        H  0.97819886  0.04064496  0.92989848     0.32400
H317        H  0.05167667  0.99870648  0.92225889     0.31300
H318        H  0.14807970  0.07019458  0.93540842     0.33000
H319        H  0.21092136  0.10633412  0.99761216     0.32000
H320        H  0.97830920  0.10707328  0.94486262     0.36000
H321        H  0.04940023  0.18217189  0.93731213     0.28700
H322        H  0.06424212  0.95627734  0.05222053     0.32900
H323        H  0.13612384  0.02942756  0.04128456     0.35800
H324        H  0.01247316  0.98310415  0.93728285     0.28400
H325        H  0.09460766  0.21373824  0.93435759     0.41300
H326        H  0.97124893  0.10034290  0.02720870     0.31300
H327        H  0.92244465  0.02805397  0.01480083     0.38900
H328        H  0.18856614  0.09957018  0.97425878     0.30800
H329        H  0.09368403  0.12074236  0.06674784     0.30900
H330        H  0.01892336  0.92536948  0.05528916     0.31100
Zr331      Zr  0.03660523  0.51368045  0.96767510     2.17500
O332        O  0.99500575  0.47786023  0.93844042    -0.51200
O333        O  0.05689314  0.46316436  0.97854463    -0.74400
O334        O  0.06994449  0.53608107  0.92790332    -0.81200
O335        O  0.94793944  0.45902196  0.01322385    -0.83000
O336        O  0.11818255  0.60119837  0.92325119    -0.78600
O337        O  0.96977049  0.45761626  0.97781355    -0.90200
O338        O  0.09811693  0.47663611  0.00871104    -0.76200
O339        O  0.10407217  0.55168535  0.97531492    -0.85700
O340        O  0.03926254  0.49857198  0.00988420    -0.85400
O341        O  0.05411020  0.58265007  0.95221601    -0.72100
O342        O  0.99507213  0.53308610  0.98344456    -0.84300
Zr343      Zr  0.08519610  0.62601814  0.01876014     2.26400
Zr344      Zr  0.12174686  0.62045943  0.96073985     2.06300
Zr345      Zr  0.99903242  0.51861153  0.02567907     2.10000
Zr346      Zr  0.10641953  0.53706397  0.01763540     1.78800
O347        O  0.93749675  0.51584696  0.03380791    -0.93100
O348        O  0.17205024  0.55425453  0.00420415    -0.40900
O349        O  0.06639985  0.55689356  0.03439517    -0.77500
O350        O  0.12671948  0.60633685  0.00306876    -0.96200
O351        O  0.08159941  0.64076928  0.97667553    -0.89500
O352        O  0.01756926  0.58777897  0.01158837    -0.92300
C353        C  0.07822555  0.45518746  0.99397784     1.01400
C354        C  0.94352072  0.44319460  0.99515257     1.14300
C355        C  0.09726755  0.56933213  0.91548993     1.05100
O356        O  0.18418876  0.62474181  0.95285412    -0.94500
O357        O  0.17144263  0.68241319  0.97097076    -0.90200
O358        O  0.15040026  0.68447073  0.00646915    -0.83400
C359        C  0.17572458  0.69911126  0.98855000     1.11800
O360        O  0.96834724  0.57827134  0.93891658    -0.96500
Zr361      Zr  0.01429193  0.60227918  0.96944248     1.88900
O362        O  0.06266992  0.67486171  0.00977597    -0.73100
O363        O  0.13625428  0.67857004  0.92879297    -0.52400
O364        O  0.02972623  0.65137508  0.93179480    -0.97100
O365        O  0.94864883  0.58242033  0.98476116    -0.54300
O366        O  0.02593198  0.66462800  0.97768190    -0.73600
C367        C  0.04363483  0.68481841  0.99345065     0.98700
O368        O  0.12569392  0.66412377  0.04745546    -0.62500
O369        O  0.98536823  0.45989393  0.05703557    -0.57300
O370        O  0.05528893  0.60019115  0.05961923    -0.93900
O371        O  0.00378211  0.53678973  0.06354117    -0.92400
O372        O  0.08938059  0.48827784  0.05555553    -0.92700
O373        O  0.15163705  0.56110027  0.04840801    -0.91500
C374        C  0.02671319  0.56764851  0.07176188     1.17500
H375        H  0.02890263  0.47030219  0.01620198     0.33500
H376        H  0.15356170  0.62148769  0.00707717     0.44300
H377        H  0.00178355  0.59455634  0.01985557     0.37900
H378        H  0.05107483  0.58752421  0.93525840     0.34400
H379        H  0.17728086  0.53430064  0.01496228     0.26100
H380        H  0.15516620  0.68009031  0.91730035     0.32100
H381        H  0.00995499  0.66002371  0.93142828     0.38000
H382        H  0.06384413  0.46514693  0.05347663     0.32400
H383        H  0.00638697  0.46980911  0.06817831     0.31300
H384        H  0.92394604  0.49239759  0.04732120     0.33000
H385        H  0.93721585  0.59286744  0.97130998     0.32000
H386        H  0.14648298  0.58099334  0.05293796     0.36000
H387        H  0.10961321  0.67235900  0.05488262     0.28700
H388        H  0.00902401  0.46645177  0.93207413     0.32900
H389        H  0.97882453  0.56581395  0.93038749     0.35800
H390        H  0.96118341  0.45319846  0.06602096     0.28400
H391        H  0.12866037  0.64480044  0.06037167     0.41300
H392        H  0.20093767  0.65237396  0.94341688     0.31300
H393        H  0.16896596  0.54695162  0.98850110     0.38900
H394        H  0.95282694  0.59887022  0.99649780     0.30800
H395        H  0.11171436  0.67079875  0.92044792     0.30900
H396        H  0.99554175  0.49861190  0.92492778     0.31100
Zr397      Zr  0.53538079  0.01148532  0.96491730     2.17500
O398        O  0.49581946  0.96878949  0.93794767    -0.51200
O399        O  0.55257128  0.95891388  0.97658394    -0.74400
O400        O  0.56705225  0.03477828  0.92451651    -0.81200
O401        O  0.44390265  0.96429322  0.00821283    -0.83000
O402        O  0.62227304  0.09553423  0.92150325    -0.78600
O403        O  0.46604720  0.96091323  0.97348870    -0.90200
O404        O  0.58807232  0.96768299  0.00934376    -0.76200
O405        O  0.60283517  0.04648256  0.97340703    -0.85700
O406        O  0.53562692  0.99645096  0.00736588    -0.85400
O407        O  0.55720184  0.08130952  0.94838239    -0.72100
O408        O  0.49559489  0.03403711  0.97936169    -0.84300
Zr409      Zr  0.58750091  0.12525952  0.01440899     2.26400
Zr410      Zr  0.62471212  0.11644732  0.95819023     2.06300
Zr411      Zr  0.49771733  0.02043334  0.02178302     2.10000
Zr412      Zr  0.60283314  0.03183653  0.01585891     1.78800
O413        O  0.43874850  0.02198468  0.03088643    -0.93100
O414        O  0.66600336  0.04363567  0.00169344    -0.40900
O415        O  0.56503192  0.05557871  0.03095343    -0.77500
O416        O  0.62696347  0.10178935  0.00059862    -0.96200
O417        O  0.58608676  0.14016485  0.97217747    -0.89500
O418        O  0.51971973  0.09003174  0.00632097    -0.92300
C419        C  0.56974165  0.94772440  0.99362360     1.01400
C420        C  0.43922949  0.94848403  0.99016117     1.14300
C421        C  0.59767622  0.06582182  0.91283128     1.05100
O422        O  0.68764911  0.11995096  0.95342513    -0.94500
O423        O  0.67663896  0.17720756  0.96909784    -0.90200
O424        O  0.65538787  0.17952492  0.00442862    -0.83400
C425        C  0.68150079  0.19318758  0.98712128     1.11800
O426        O  0.47179974  0.07727659  0.93427399    -0.96500
Zr427      Zr  0.51871402  0.10365054  0.96393132     1.88900
O428        O  0.56339536  0.17257809  0.00609066    -0.73100
O429        O  0.64047487  0.17372262  0.92523858    -0.52400
O430        O  0.53777953  0.15078579  0.92525933    -0.97100
O431        O  0.45431817  0.09324226  0.97446342    -0.54300
O432        O  0.53242802  0.16643244  0.97153589    -0.73600
C433        C  0.54718679  0.18413457  0.98861891     0.98700
O434        O  0.62716101  0.17029411  0.04022431    -0.62500
O435        O  0.47996731  0.96128868  0.05378563    -0.57300
O436        O  0.56254267  0.09936583  0.05591592    -0.93900
O437        O  0.50610165  0.03948757  0.05963789    -0.92400
O438        O  0.58714264  0.98514955  0.05453164    -0.92700
O439        O  0.64794295  0.05734521  0.04648028    -0.91500
C440        C  0.53259557  0.06854675  0.06806213     1.17500
H441        H  0.52364145  0.96797941  0.01388401     0.33500
H442        H  0.65367779  0.11550211  0.00517124     0.44300
H443        H  0.50431615  0.09819813  0.01375488     0.37900
H444        H  0.55486784  0.08675304  0.93133498     0.34400
H445        H  0.68555890  0.07023779  0.00451814     0.26100
H446        H  0.66374585  0.17805924  0.91634204     0.32100
H447        H  0.52037033  0.16243439  0.92420663     0.38000
H448        H  0.60723776  0.97680163  0.05578013     0.32400
H449        H  0.45589381  0.95617420  0.06213731     0.31300
H450        H  0.42158976  0.99555871  0.04153521     0.33000
H451        H  0.45910836  0.11126667  0.98530292     0.32000
H452        H  0.64214710  0.07689079  0.05091949     0.36000
H453        H  0.60915949  0.17600410  0.04789014     0.28700
H454        H  0.51336052  0.96264870  0.93015906     0.32900
H455        H  0.45318367  0.04913667  0.94219557     0.35800
H456        H  0.47098024  0.93863627  0.04588035     0.28400
H457        H  0.63409168  0.15432458  0.05332522     0.41300
H458        H  0.68080554  0.09295532  0.95165967     0.31300
H459        H  0.67107163  0.02444220  0.01340094     0.38900
H460        H  0.44046487  0.06599485  0.98485387     0.30800
H461        H  0.61885752  0.16379330  0.91447030     0.30900
H462        H  0.48990148  0.98589877  0.92509052     0.31100
Zr463      Zr  0.53595174  0.51981826  0.95860628     2.17500
O464        O  0.49421187  0.50550778  0.92521529    -0.51200
O465        O  0.54838248  0.46402978  0.96517636    -0.74400
O466        O  0.57650980  0.54133413  0.92171952    -0.81200
O467        O  0.44333395  0.46254199  0.00073709    -0.83000
O468        O  0.63025258  0.60119262  0.92239015    -0.78600
O469        O  0.46876545  0.46372887  0.96573629    -0.90200
O470        O  0.58132761  0.46505337  0.99883377    -0.76200
O471        O  0.60134648  0.54670759  0.97111012    -0.85700
O472        O  0.52952748  0.49563376  0.00083219    -0.85400
O473        O  0.56441965  0.59137940  0.94699369    -0.72100
O474        O  0.49755639  0.54291007  0.97401059    -0.84300
Zr475      Zr  0.58560117  0.61649055  0.01884149     2.26400
Zr476      Zr  0.62938733  0.61794421  0.96072026     2.06300
Zr477      Zr  0.49216039  0.51927526  0.01629000     2.10000
Zr478      Zr  0.59486758  0.52311357  0.01329569     1.78800
O479        O  0.43559640  0.52879714  0.01662854    -0.93100
O480        O  0.66232805  0.54109192  0.00375964    -0.40900
O481        O  0.55719531  0.54533112  0.03002838    -0.77500
O482        O  0.62483687  0.59438370  0.00326085    -0.96200
O483        O  0.59212626  0.64142694  0.97669146    -0.89500
O484        O  0.52023684  0.59050990  0.00610918    -0.92300
C485        C  0.56408382  0.44922898  0.98138934     1.01400
C486        C  0.44100173  0.44850410  0.98221901     1.14300
C487        C  0.60881378  0.57243126  0.91195934     1.05100
O488        O  0.68942232  0.61433173  0.96062759    -0.94500
O489        O  0.67721785  0.67641408  0.97547867    -0.90200
O490        O  0.65374959  0.67026053  0.01246561    -0.83400
C491        C  0.68035986  0.68797215  0.99512079     1.11800
O492        O  0.49567343  0.60598887  0.92621920    -0.96500
Zr493      Zr  0.52731683  0.61431087  0.96373615     1.88900
O494        O  0.56795720  0.66790177  0.01443624    -0.73100
O495        O  0.65555398  0.67890315  0.92925297    -0.52400
O496        O  0.55649253  0.67389499  0.93129702    -0.97100
O497        O  0.45961152  0.59926384  0.96797228    -0.54300
O498        O  0.53806477  0.67040652  0.97980073    -0.73600
C499        C  0.55294607  0.68364345  0.99847412     0.98700
O500        O  0.62231115  0.64733430  0.05108015    -0.62500
O501        O  0.46009250  0.46010339  0.04870338    -0.57300
O502        O  0.55147688  0.58318556  0.05837556    -0.93900
O503        O  0.49397596  0.52651198  0.05699101    -0.92400
O504        O  0.57096523  0.46523568  0.04676736    -0.92700
O505        O  0.62909757  0.53031462  0.05000123    -0.91500
C506        C  0.51941600  0.55194710  0.06812082     1.17500
H507        H  0.51586761  0.46676056  0.00515925     0.33500
H508        H  0.65066595  0.60550942  0.00934145     0.44300
H509        H  0.50506185  0.59846532  0.01392789     0.37900
H510        H  0.56550903  0.59981971  0.92981964     0.34400
H511        H  0.66771277  0.52313293  0.01633674     0.26100
H512        H  0.67980122  0.68192030  0.92244557     0.32100
H513        H  0.58156659  0.69270372  0.93708191     0.38000
H514        H  0.54246881  0.44913417  0.04488016     0.32400
H515        H  0.43188558  0.44606147  0.04560571     0.31300
H516        H  0.41687948  0.50622956  0.02925492     0.33000
H517        H  0.45945808  0.62306921  0.95804315     0.32000
H518        H  0.63517680  0.55686628  0.05222008     0.36000
H519        H  0.60537647  0.65414449  0.05893477     0.28700
H520        H  0.49335137  0.48193635  0.92133896     0.32900
H521        H  0.48452473  0.57725276  0.92642908     0.35800
H522        H  0.47023782  0.44276516  0.04599783     0.28400
H523        H  0.62369573  0.62591457  0.06308455     0.41300
H524        H  0.71080923  0.64250903  0.95579982     0.31300
H525        H  0.66121416  0.53157070  0.98902593     0.38900
H526        H  0.45589922  0.60034449  0.98463591     0.30800
H527        H  0.63692304  0.67229926  0.91650531     0.30900
H528        H  0.50860325  0.52795862  0.91133410     0.31100
Zr529      Zr  0.03657147  0.11905619  0.62638925     2.17500
O530        O  0.99184499  0.12711501  0.59759005    -0.51200
O531        O  0.98589223  0.04854244  0.63463398    -0.74400
O532        O  0.04816621  0.11229590  0.58672581    -0.81200
O533        O  0.99743464  0.15255521  0.67178952    -0.83000
O534        O  0.10747512  0.11599056  0.58406890    -0.78600
O535        O  0.98757329  0.13546101  0.63572426    -0.90200
O536        O  0.00358863  0.01400527  0.66486538    -0.76200
O537        O  0.07120050  0.08308652  0.63570644    -0.85700
O538        O  0.02936504  0.09680240  0.66875621    -0.85400
O539        O  0.10341571  0.16697732  0.61105948    -0.72100
O540        O  0.06416556  0.17846716  0.64200746    -0.84300
Zr541      Zr  0.15936072  0.16685940  0.67977536     2.26400
Zr542      Zr  0.13825640  0.13058519  0.62141068     2.06300
Zr543      Zr  0.05819365  0.15573425  0.68458097     2.10000
Zr544      Zr  0.06466166  0.06179992  0.67815862     1.78800
O545        O  0.06017078  0.21593353  0.69027021    -0.93100
O546        O  0.07708818  0.00984725  0.67194275    -0.40900
O547        O  0.09279691  0.11976770  0.69471605    -0.77500
O548        O  0.13187139  0.10735736  0.66410295    -0.96200
O549        O  0.16671127  0.18952441  0.63728358    -0.89500
O550        O  0.12503135  0.20318136  0.67052952    -0.92300
C551        C  0.98005511  0.01608391  0.64909909     1.01400
C552        C  0.97816636  0.14548908  0.65311922     1.14300
C553        C  0.07521899  0.11189372  0.57533733     1.05100
O554        O  0.13639125  0.06968181  0.61747203    -0.94500
O555        O  0.20184053  0.13762306  0.63372089    -0.90200
O556        O  0.21161745  0.15528513  0.66952214    -0.83400
C557        C  0.22194119  0.14591400  0.65216155     1.11800
O558        O  0.10015455  0.25305329  0.59873974    -0.96500
Zr559      Zr  0.13135891  0.22465700  0.62804370     1.88900
O560        O  0.21036752  0.23699665  0.67084494    -0.73100
O561        O  0.18653498  0.17196244  0.58757089    -0.52400
O562        O  0.16690765  0.25660773  0.58887400    -0.97100
O563        O  0.13016506  0.27995310  0.63952479    -0.54300
O564        O  0.19858720  0.26806196  0.63576226    -0.73600
C565        C  0.22012093  0.26678806  0.65300473     0.98700
O566        O  0.19437756  0.15512633  0.71408914    -0.62500
O567        O  0.00610564  0.11077990  0.71586103    -0.57300
O568        O  0.14591980  0.16897733  0.72044395    -0.93900
O569        O  0.08619874  0.16458492  0.72298353    -0.92400
O570        O  0.01851474  0.03031357  0.71322842    -0.92700
O571        O  0.09156877  0.03647141  0.71217391    -0.91500
C572        C  0.11786417  0.16754965  0.73198440     1.17500
H573        H  0.00204586  0.07981029  0.67437698     0.33500
H574        H  0.14604278  0.09306729  0.66888210     0.44300
H575        H  0.13566126  0.22534437  0.67831845     0.37900
H576        H  0.10499098  0.17659217  0.59395927     0.34400
H577        H  0.05486191  0.98448709  0.68091214     0.26100
H578        H  0.18731297  0.15264659  0.57946492     0.32100
H579        H  0.18612506  0.24728987  0.58914487     0.38000
H580        H  0.00710364  0.00120281  0.71464172     0.32400
H581        H  0.01520485  0.09292182  0.72520534     0.31300
H582        H  0.04025058  0.20630817  0.70358945     0.33000
H583        H  0.15008297  0.28841831  0.65145168     0.32000
H584        H  0.11400619  0.06076770  0.71605923     0.36000
H585        H  0.19323559  0.12948211  0.71419814     0.28700
H586        H  0.97796430  0.10188565  0.59191798     0.32900
H587        H  0.07638761  0.22952069  0.59513518     0.35800
H588        H  0.00745341  0.12768295  0.72669356     0.28400
H589        H  0.22235524  0.17588896  0.71022110     0.41300
H590        H  0.10853261  0.05121716  0.61525908     0.31300
H591        H  0.07251377  0.00919567  0.65492484     0.38900
H592        H  0.10465089  0.26744829  0.64879117     0.30800
H593        H  0.17406262  0.18471037  0.57635581     0.30900
H594        H  0.00852530  0.14786863  0.58359331     0.31100
Zr595      Zr  0.05400012  0.60223844  0.62795539     2.17500
O596        O  0.01901443  0.62290772  0.59702499    -0.51200
O597        O  0.99946953  0.53397196  0.63412216    -0.74400
O598        O  0.06483529  0.59319927  0.58913679    -0.81200
O599        O  0.01337101  0.63012552  0.67535752    -0.83000
O600        O  0.12372345  0.59616069  0.58615386    -0.78600
O601        O  0.00631980  0.62034727  0.63746217    -0.90200
O602        O  0.01118009  0.49472570  0.66456130    -0.76200
O603        O  0.08693248  0.56442759  0.63450329    -0.85700
O604        O  0.04394501  0.57368752  0.66971720    -0.85400
O605        O  0.12151993  0.64945321  0.61443716    -0.72100
O606        O  0.08168376  0.65758220  0.64693811    -0.84300
Zr607      Zr  0.17355091  0.63763566  0.68356813     2.26400
Zr608      Zr  0.15508024  0.61167928  0.62288015     2.06300
Zr609      Zr  0.07285334  0.62870166  0.68883626     2.10000
Zr610      Zr  0.07701383  0.53602752  0.67611317     1.78800
O611        O  0.08128114  0.68885022  0.69916337    -0.93100
O612        O  0.08705788  0.49085497  0.65828170    -0.40900
O613        O  0.10558758  0.59058080  0.69577342    -0.77500
O614        O  0.14553000  0.58124480  0.66479294    -0.96200
O615        O  0.18397461  0.66700728  0.64193825    -0.89500
O616        O  0.14086030  0.67575996  0.67694056    -0.92300
C617        C  0.98913910  0.50038266  0.64880905     1.01400
C618        C  0.99597044  0.62788471  0.65569566     1.14300
C619        C  0.09103011  0.59138316  0.57788435     1.05100
O620        O  0.16392998  0.56147157  0.61026802    -0.94500
O621        O  0.21496917  0.61117515  0.63533958    -0.90200
O622        O  0.22307614  0.62295626  0.67270152    -0.83400
C623        C  0.23337262  0.61533902  0.65454695     1.11800
O624        O  0.12876697  0.73877836  0.60254718    -0.96500
Zr625      Zr  0.14950804  0.70322643  0.63486456     1.88900
O626        O  0.22418891  0.70761035  0.67977722    -0.73100
O627        O  0.20554681  0.66644477  0.59366126    -0.52400
O628        O  0.19628000  0.73918387  0.60002922    -0.97100
O629        O  0.13420968  0.75065474  0.64566710    -0.54300
O630        O  0.21004166  0.74660200  0.65047689    -0.73600
C631        C  0.23179216  0.74164697  0.66662390     0.98700
O632        O  0.21589079  0.63584458  0.71589496    -0.62500
O633        O  0.02180055  0.58512645  0.72087009    -0.57300
O634        O  0.15297843  0.62194423  0.72548394    -0.93900
O635        O  0.09522401  0.62127739  0.72874545    -0.92400
O636        O  0.03222219  0.49174738  0.71095475    -0.92700
O637        O  0.10351183  0.50515567  0.70752935    -0.91500
C638        C  0.12436592  0.61811335  0.73767682     1.17500
H639        H  0.01641020  0.55735036  0.67484173     0.33500
H640        H  0.15834373  0.56548266  0.66875202     0.44300
H641        H  0.15133389  0.69616343  0.68613586     0.37900
H642        H  0.12367327  0.66060428  0.59749345     0.34400
H643        H  0.07562822  0.46536427  0.67048547     0.26100
H644        H  0.21224182  0.65309112  0.58347567     0.32100
H645        H  0.21278634  0.76676384  0.60241021     0.38000
H646        H  0.02273990  0.46431830  0.70879513     0.32400
H647        H  0.01057015  0.60135428  0.72401973     0.31300
H648        H  0.07005865  0.70021728  0.68603251     0.33000
H649        H  0.15665992  0.77733423  0.63851422     0.32000
H650        H  0.11950664  0.52629720  0.71635229     0.36000
H651        H  0.21245541  0.60861619  0.71937670     0.28700
H652        H  0.00276888  0.59936580  0.59003895     0.32900
H653        H  0.09973990  0.72223582  0.60371414     0.35800
H654        H  0.00083347  0.56416572  0.71358452     0.28400
H655        H  0.24329378  0.65386105  0.70898981     0.41300
H656        H  0.15367245  0.53846911  0.62422522     0.31300
H657        H  0.06893997  0.48512817  0.64523350     0.38900
H658        H  0.13691795  0.74763570  0.66309605     0.30800
H659        H  0.19157859  0.67837860  0.58333316     0.30900
H660        H  0.03929678  0.64302467  0.58422949     0.31100
Zr661      Zr  0.53186436  0.10905654  0.63057270     2.17500
O662        O  0.48978186  0.12495168  0.60311818    -0.51200
O663        O  0.48386037  0.03721463  0.64041981    -0.74400
O664        O  0.54019409  0.10078588  0.59031893    -0.81200
O665        O  0.49449418  0.13729023  0.68002430    -0.83000
O666        O  0.60145376  0.11159368  0.58416870    -0.78600
O667        O  0.48084046  0.11970224  0.64405807    -0.90200
O668        O  0.50532120  0.00792868  0.67156914    -0.76200
O669        O  0.57198565  0.07904616  0.63565652    -0.85700
O670        O  0.53097961  0.08629384  0.67275269    -0.85400
O671        O  0.59590992  0.16124755  0.61307410    -0.72100
O672        O  0.55819319  0.16685503  0.64758137    -0.84300
Zr673      Zr  0.66197767  0.16512843  0.67775715     2.26400
Zr674      Zr  0.63650496  0.13089122  0.61939224     2.06300
Zr675      Zr  0.55854534  0.14412986  0.68969147     2.10000
Zr676      Zr  0.57131321  0.05624637  0.67748163     1.78800
O677        O  0.56494911  0.20473814  0.69815141    -0.93100
O678        O  0.57747744  0.00850221  0.65994710    -0.40900
O679        O  0.59823564  0.11322531  0.69475701    -0.77500
O680        O  0.63671075  0.10644880  0.66150008    -0.96200
O681        O  0.66316890  0.18880233  0.63594787    -0.89500
O682        O  0.62279795  0.19639522  0.67306341    -0.92300
C683        C  0.47978532  0.00701837  0.65667849     1.01400
C684        C  0.47297077  0.12941189  0.66217937     1.14300
C685        C  0.56712634  0.10300806  0.57710794     1.05100
O686        O  0.64128401  0.07576612  0.61074692    -0.94500
O687        O  0.70292442  0.14344219  0.62736479    -0.90200
O688        O  0.71525779  0.15901249  0.66377778    -0.83400
C689        C  0.72484857  0.15250968  0.64495327     1.11800
O690        O  0.58659525  0.24467486  0.60455123    -0.96500
Zr691      Zr  0.62243411  0.21813611  0.63086684     1.88900
O692        O  0.70729214  0.23667130  0.66935340    -0.73100
O693        O  0.67999643  0.18326884  0.58613700    -0.52400
O694        O  0.65486864  0.25086155  0.59085516    -0.97100
O695        O  0.61201848  0.26704143  0.64404407    -0.54300
O696        O  0.68858544  0.26706732  0.63731991    -0.73600
C697        C  0.71308516  0.26705530  0.65289095     0.98700
O698        O  0.70961751  0.17097942  0.70784949    -0.62500
O699        O  0.51258770  0.10294498  0.72457231    -0.57300
O700        O  0.64902170  0.15162802  0.72048954    -0.93900
O701        O  0.58890432  0.14367787  0.72776162    -0.92400
O702        O  0.54195380  0.02460369  0.71824205    -0.92700
O703        O  0.60084189  0.02106814  0.70272453    -0.91500
C704        C  0.62117120  0.14516321  0.73457415     1.17500
H705        H  0.50460792  0.06793129  0.67979407     0.33500
H706        H  0.65302943  0.09430143  0.66451138     0.44300
H707        H  0.63325972  0.21819125  0.68116760     0.37900
H708        H  0.59478676  0.17038998  0.59617315     0.34400
H709        H  0.56225349  0.00626795  0.64553748     0.26100
H710        H  0.69414702  0.17188135  0.57992817     0.32100
H711        H  0.66443769  0.27966314  0.58949155     0.38000
H712        H  0.54218270  0.04611628  0.72453061     0.32400
H713        H  0.49867528  0.11732043  0.72660412     0.31300
H714        H  0.57232583  0.20406719  0.71490624     0.33000
H715        H  0.63014066  0.27540230  0.65687348     0.32000
H716        H  0.62917791  0.03669048  0.69753403     0.36000
H717        H  0.71297149  0.14735545  0.70941926     0.28700
H718        H  0.46773004  0.09885315  0.60121608     0.32900
H719        H  0.56732029  0.22190773  0.59777981     0.35800
H720        H  0.49251707  0.07861931  0.71943957     0.28400
H721        H  0.73505721  0.19417972  0.70049237     0.41300
H722        H  0.65683844  0.08696622  0.59520853     0.31300
H723        H  0.60523919  0.02263969  0.65361831     0.38900
H724        H  0.58545879  0.25124980  0.65238628     0.30800
H725        H  0.66253092  0.18509962  0.57349770     0.30900
H726        H  0.50453654  0.13821310  0.58729428     0.31100
Zr727      Zr  0.55083201  0.60018032  0.62893422     2.17500
O728        O  0.51044669  0.62114013  0.60304842    -0.51200
O729        O  0.50171637  0.53000837  0.63547419    -0.74400
O730        O  0.55658463  0.59602374  0.58802118    -0.81200
O731        O  0.50940254  0.61566266  0.68180377    -0.83000
O732        O  0.61870059  0.60962817  0.57949501    -0.78600
O733        O  0.49619570  0.60164728  0.64504071    -0.90200
O734        O  0.52259046  0.49387017  0.66222499    -0.76200
O735        O  0.58990535  0.56922200  0.63030955    -0.85700
O736        O  0.54882217  0.57057495  0.66995051    -0.85400
O737        O  0.61487732  0.65345091  0.61239188    -0.72100
O738        O  0.57519193  0.65411075  0.64901438    -0.84300
Zr739      Zr  0.67915670  0.64726044  0.67625357     2.26400
Zr740      Zr  0.65479408  0.62241752  0.61527291     2.06300
Zr741      Zr  0.57460992  0.62424152  0.68989602     2.10000
Zr742      Zr  0.58848098  0.54044273  0.67139450     1.78800
O743        O  0.57511010  0.67815802  0.70408960    -0.93100
O744        O  0.60105202  0.49927886  0.65108818    -0.40900
O745        O  0.61467641  0.59375816  0.69217443    -0.77500
O746        O  0.65390815  0.59229183  0.65653080    -0.96200
O747        O  0.68062696  0.67669372  0.63521952    -0.89500
O748        O  0.63930955  0.67751646  0.67480798    -0.92300
C749        C  0.49687276  0.49704345  0.64867639     1.01400
C750        C  0.48703414  0.60741967  0.66431169     1.14300
C751        C  0.58370327  0.60107809  0.57386411     1.05100
O752        O  0.65988705  0.57075792  0.60179456    -0.94500
O753        O  0.72071420  0.63169130  0.62252041    -0.90200
O754        O  0.73439377  0.64697003  0.65895803    -0.83400
C755        C  0.74345435  0.64069836  0.63979464     1.11800
O756        O  0.60204430  0.73177349  0.60890423    -0.96500
Zr757      Zr  0.63988419  0.70591783  0.63365005     1.88900
O758        O  0.72634397  0.71876512  0.67017694    -0.73100
O759        O  0.69763448  0.67503998  0.58186900    -0.52400
O760        O  0.67334309  0.74865719  0.59513207    -0.97100
O761        O  0.63055208  0.75135830  0.65175535    -0.54300
O762        O  0.70516125  0.75279318  0.64193830    -0.73600
C763        C  0.73067236  0.75096986  0.65607471     0.98700
O764        O  0.72087970  0.63504387  0.70584795    -0.62500
O765        O  0.52565076  0.57220938  0.72109599    -0.57300
O766        O  0.66912203  0.64014941  0.71892358    -0.93900
O767        O  0.60723542  0.62770583  0.72670390    -0.92400
O768        O  0.55275151  0.49506504  0.70880579    -0.92700
O769        O  0.62177097  0.51173923  0.69861029    -0.91500
C770        C  0.64093096  0.63302594  0.73309130     1.17500
H771        H  0.52229502  0.55128643  0.67654326     0.33500
H772        H  0.67039609  0.58029873  0.65843472     0.44300
H773        H  0.64948232  0.69734209  0.68439139     0.37900
H774        H  0.61374968  0.66489276  0.59588378     0.34400
H775        H  0.59245349  0.47378097  0.66300664     0.26100
H776        H  0.71458231  0.69824809  0.58897220     0.32100
H777        H  0.68295136  0.77625705  0.59700996     0.38000
H778        H  0.56075185  0.51220950  0.72054324     0.32400
H779        H  0.53835276  0.55728076  0.72963478     0.31300
H780        H  0.55633211  0.66448988  0.71837210     0.33000
H781        H  0.64753318  0.75596606  0.66537341     0.32000
H782        H  0.64639103  0.53514967  0.70149588     0.36000
H783        H  0.72129814  0.61133798  0.70315235     0.28700
H784        H  0.49454203  0.59922855  0.59474100     0.32900
H785        H  0.57431667  0.71009697  0.61248946     0.35800
H786        H  0.52386074  0.58663903  0.73263447     0.28400
H787        H  0.74792860  0.65773878  0.70117579     0.41300
H788        H  0.63339035  0.54680656  0.60553649     0.31300
H789        H  0.58133602  0.49218294  0.63895077     0.38900
H790        H  0.60339307  0.73517268  0.65924380     0.30800
H791        H  0.71551512  0.66616058  0.57753808     0.30900
H792        H  0.52898869  0.64393382  0.59049106     0.31100
C793        C  0.87833955  0.44261520  0.64212981    -0.05400
C794        C  0.87050206  0.40281828  0.64748735     0.08800
C795        C  0.90129249  0.39461881  0.65330170    -0.02800
C796        C  0.94007301  0.42617728  0.65357477    -0.01000
C797        C  0.94836573  0.46650787  0.64809558    -0.04600
C798        C  0.91683013  0.47427977  0.64278389     0.02400
C799        C  0.82922583  0.36918687  0.64846783     0.09200
C800        C  0.89267902  0.35338045  0.65943520     0.35100
C801        C  0.92296652  0.51445507  0.63952924     0.38600
C802        C  0.81428188  0.35331226  0.62814641    -0.05000
C803        C  0.77562201  0.32094792  0.62936116     0.02200
C804        C  0.75188009  0.30392153  0.65105847    -0.04600
C805        C  0.76703740  0.31978490  0.67143005    -0.00800
C806        C  0.80548740  0.35255115  0.67004707    -0.03400
C807        C  0.83924463  0.36934418  0.60625566     0.35900
C808        C  0.74325214  0.30215138  0.69389441     0.39500
C809        C  0.76122356  0.30347665  0.60870468     0.38600
C810        C  0.82118045  0.36868123  0.69098314     0.35500
C811        C  0.84637600  0.45084027  0.63653497     0.36200
C812        C  0.97103906  0.41661436  0.65969360     0.39500
N813        N  0.74958983  0.28925204  0.59235873    -0.38600
N814        N  0.85916649  0.38183158  0.58881499    -0.40200
N815        N  0.72433714  0.28784244  0.71184060    -0.37900
N816        N  0.83396235  0.38166314  0.70761675    -0.40300
N817        N  0.88549989  0.32039816  0.66439103    -0.40100
N818        N  0.99540947  0.40857327  0.66484941    -0.37700
N819        N  0.92738174  0.54628040  0.63704535    -0.38800
N820        N  0.82090980  0.45742750  0.63210255    -0.40400
C821        C  0.39722371  0.91100259  0.64237205    -0.05400
C822        C  0.37620088  0.89084469  0.66489433     0.08800
C823        C  0.38877856  0.90914675  0.68453421    -0.02800
C824        C  0.42179571  0.94778491  0.68158438    -0.01000
C825        C  0.44307568  0.96800689  0.65903804    -0.04600
C826        C  0.43089103  0.94927928  0.63951633     0.02400
C827        C  0.33919693  0.85143799  0.66756857     0.09200
C828        C  0.36737599  0.88824342  0.70774896     0.35100
C829        C  0.45391945  0.96850645  0.61678359     0.38600
C830        C  0.34045443  0.81611003  0.66843792    -0.05000
C831        C  0.30522097  0.77945635  0.66950720     0.02200
C832        C  0.26853666  0.77811195  0.66966786    -0.04600
C833        C  0.26751883  0.81322308  0.67024840    -0.00800
C834        C  0.30268231  0.84977193  0.66886582    -0.03400
C835        C  0.37809145  0.81778601  0.66749348     0.35900
C836        C  0.23032720  0.81196671  0.67263410     0.39500
C837        C  0.30708319  0.74373297  0.66932757     0.38600
C838        C  0.30133230  0.88607541  0.66807233     0.35500
C839        C  0.38396048  0.89240931  0.62208377     0.36200
C840        C  0.43317152  0.96698816  0.70171847     0.39500
N841        N  0.30890996  0.71541295  0.66923606    -0.38600
N842        N  0.40808881  0.81912006  0.66656502    -0.40200
N843        N  0.20111719  0.81178641  0.67471782    -0.37900
N844        N  0.30028051  0.91501405  0.66744069    -0.40300
N845        N  0.35015651  0.87158067  0.72620634    -0.40100
N846        N  0.44186736  0.98200621  0.71788442    -0.37700
N847        N  0.47240556  0.98352156  0.59868226    -0.38800
N848        N  0.37336498  0.87754288  0.60591012    -0.40400
C849        C  0.89525654  0.61604049  0.66789302    -0.05400
C850        C  0.89263087  0.64149938  0.64723525     0.08800
C851        C  0.92505166  0.66438439  0.63017312    -0.02800
C852        C  0.95928650  0.66106189  0.63340259    -0.01000
C853        C  0.96137275  0.63433814  0.65361728    -0.04600
C854        C  0.92936324  0.61247101  0.67109519     0.02400
C855        C  0.85516680  0.64307983  0.64316451     0.09200
C856        C  0.92296701  0.69104621  0.60906081     0.35100
C857        C  0.93055497  0.58491373  0.69199673     0.38600
C858        C  0.85265238  0.67614486  0.64652093    -0.05000
C859        C  0.81680073  0.67643329  0.64384881     0.02200
C860        C  0.78267563  0.64324112  0.63831788    -0.04600
C861        C  0.78580508  0.61104046  0.63380003    -0.00800
C862        C  0.82182943  0.61101118  0.63622759    -0.03400
C863        C  0.88681055  0.70959501  0.65323710     0.35900
C864        C  0.75171264  0.57712027  0.62748420     0.39500
C865        C  0.81534851  0.71150016  0.64623071     0.38600
C866        C  0.82456579  0.57751518  0.63204422     0.35500
C867        C  0.86234229  0.59277443  0.68569987     0.36200
C868        C  0.99285748  0.68622047  0.61617826     0.39500
N869        N  0.81445681  0.73969102  0.64793543    -0.38600
N870        N  0.91404279  0.73635670  0.65855201    -0.40200
N871        N  0.72472227  0.54995879  0.62233992    -0.37900
N872        N  0.82704113  0.55087280  0.62886428    -0.40300
N873        N  0.92139619  0.71245899  0.59225954    -0.40100
N874        N  0.01959158  0.70663262  0.60244221    -0.37700
N875        N  0.93092357  0.56275319  0.70879117    -0.38800
N876        N  0.83600517  0.57399765  0.69984224    -0.40400
C877        C  0.30726045  0.58307483  0.67901739    -0.05400
C878        C  0.33850221  0.60623876  0.66129366     0.08800
C879        C  0.33481242  0.63131332  0.64092469    -0.02800
C880        C  0.29964526  0.63268023  0.63804340    -0.01000
C881        C  0.26880533  0.61076839  0.65626315    -0.04600
C882        C  0.27288714  0.58599561  0.67682429     0.02400
C883        C  0.37563150  0.60452456  0.66406114     0.09200
C884        C  0.36784062  0.65673275  0.62333541     0.35100
C885        C  0.24161045  0.56302039  0.69570651     0.38600
C886        C  0.37860299  0.57437640  0.65667719    -0.05000
C887        C  0.41462202  0.57464146  0.65733308     0.02200
C888        C  0.44799912  0.60488608  0.66586989    -0.04600
C889        C  0.44427698  0.63425254  0.67412257    -0.00800
C890        C  0.40819215  0.63399023  0.67316677    -0.03400
C891        C  0.34447177  0.54330513  0.64811306     0.35900
C892        C  0.47800270  0.66630575  0.68221123     0.39500
C893        C  0.41696973  0.54382947  0.64883175     0.38600
C894        C  0.40444709  0.66450864  0.68106503     0.35500
C895        C  0.31067275  0.55637484  0.69958600     0.36200
C896        C  0.29593197  0.65774772  0.61666007     0.39500
N897        N  0.41821745  0.51926569  0.64166715    -0.38600
N898        N  0.31708365  0.51850860  0.64143922    -0.40200
N899        N  0.50480748  0.69207284  0.68860529    -0.37900
N900        N  0.40084798  0.68859707  0.68723957    -0.40300
N901        N  0.39447468  0.67741373  0.60956012    -0.40100
N902        N  0.29308183  0.67758530  0.59946880    -0.37700
N903        N  0.21692103  0.54478704  0.71092253    -0.38800
N904        N  0.31327594  0.53486270  0.71590402    -0.40400
C905        C  0.91018674  0.90625294  0.64954865    -0.05400
C906        C  0.87332427  0.90351448  0.65170598     0.08800
C907        C  0.87132373  0.93814896  0.65187134    -0.02800
C908        C  0.90615376  0.97558118  0.64949709    -0.01000
C909        C  0.94327451  0.97816338  0.64807156    -0.04600
C910        C  0.94499467  0.94339881  0.64756053     0.02400
C911        C  0.83664021  0.86409558  0.65302746     0.09200
C912        C  0.83346078  0.93494721  0.65538641     0.35100
C913        C  0.98247327  0.94591268  0.64388677     0.38600
C914        C  0.81681445  0.83975901  0.67535432    -0.05000
C915        C  0.78250000  0.80232199  0.67654004     0.02200
C916        C  0.76804464  0.78898184  0.65536995    -0.04600
C917        C  0.78898817  0.81264645  0.63311301    -0.00800
C918        C  0.82303576  0.85014262  0.63195380    -0.03400
C919        C  0.83224947  0.85301329  0.69711839     0.35900
C920        C  0.77658735  0.79750839  0.61151663     0.39500
C921        C  0.76172554  0.77784022  0.69947891     0.38600
C922        C  0.84469831  0.87407276  0.60913032     0.35500
C923        C  0.91214596  0.87041946  0.64989926     0.36200
C924        C  0.90359556  0.01119039  0.64882394     0.39500
N925        N  0.74503130  0.75802583  0.71770853    -0.38600
N926        N  0.84472657  0.86353993  0.71448511    -0.40200
N927        N  0.76676153  0.78511954  0.59440966    -0.37900
N928        N  0.86222613  0.89307280  0.59099132    -0.40300
N929        N  0.80335078  0.93237141  0.65859876    -0.40100
N930        N  0.90137924  0.03957069  0.64796780    -0.37700
N931        N  0.01198572  0.94728516  0.64064851    -0.38800
N932        N  0.91340681  0.84165347  0.65031098    -0.40400
C933        C  0.40216086  0.42138947  0.62686028    -0.05400
C934        C  0.38100105  0.39572670  0.64866152     0.08800
C935        C  0.39908262  0.40186648  0.67040777    -0.02800
C936        C  0.43699615  0.43480686  0.67049729    -0.01000
C937        C  0.45819093  0.46056485  0.64867948    -0.04600
C938        C  0.44087512  0.45308148  0.62684943     0.02400
C939        C  0.33914892  0.36321695  0.64894249     0.09200
C940        C  0.37819253  0.37466405  0.69281802     0.35100
C941        C  0.46304453  0.47792864  0.60428012     0.38600
C942        C  0.32994688  0.32974131  0.63943966    -0.05000
C943        C  0.29055116  0.29949399  0.63968480     0.02200
C944        C  0.26050042  0.30075615  0.65116163    -0.04600
C945        C  0.26941692  0.33370886  0.66095579    -0.00800
C946        C  0.30853013  0.36547008  0.65924078    -0.03400
C947        C  0.36091661  0.32552168  0.63013823     0.35900
C948        C  0.23850222  0.33473429  0.67298938     0.39500
C949        C  0.28069566  0.26684035  0.62810785     0.38600
C950        C  0.31737920  0.40024810  0.66837864     0.35500
C951        C  0.38392639  0.41587442  0.60437982     0.36200
C952        C  0.45281079  0.44346666  0.69318895     0.39500
N953        N  0.27240984  0.24079117  0.61882999    -0.38600
N954        N  0.38525414  0.32156357  0.62275314    -0.40200
N955        N  0.21403615  0.33566041  0.68274573    -0.37900
N956        N  0.32461965  0.42787647  0.67583000    -0.40300
N957        N  0.36129917  0.35306969  0.71064047    -0.40100
N958        N  0.46483140  0.45022555  0.71142143    -0.37700
N959        N  0.48096972  0.49783106  0.58638320    -0.38800
N960        N  0.36978964  0.41169241  0.58631309    -0.40400
C961        C  0.90261078  0.17480740  0.62861028    -0.05400
C962        C  0.87319472  0.15422095  0.64751371     0.08800
C963        C  0.87854460  0.13169804  0.66853797    -0.02800
C964        C  0.91294940  0.12894285  0.67049289    -0.01000
C965        C  0.94245708  0.14925770  0.65145861    -0.04600
C966        C  0.93745535  0.17282475  0.63068145     0.02400
C967        C  0.83591849  0.15543359  0.64524005     0.09200
C968        C  0.84815106  0.11082545  0.68799328     0.35100
C969        C  0.96864649  0.19615030  0.61176134     0.38600
C970        C  0.80228723  0.12359364  0.63858291    -0.05000
C971        C  0.76612751  0.12288887  0.63819601     0.02200
C972        C  0.76351731  0.15448840  0.64409330    -0.04600
C973        C  0.79759515  0.18662544  0.65067915    -0.00800
C974        C  0.83370139  0.18707626  0.65111550    -0.03400
C975        C  0.80477126  0.09094066  0.63272493     0.35900
C976        C  0.79578227  0.21916882  0.65724034     0.39500
C977        C  0.73119344  0.08800186  0.63348119     0.38600
C978        C  0.86862054  0.21970446  0.65797236     0.35500
C979        C  0.89662307  0.19754878  0.60693640     0.36200
C980        C  0.91702884  0.10395109  0.69178552     0.39500
N981        N  0.70361644  0.05967318  0.62996976    -0.38600
N982        N  0.80668124  0.06484173  0.62810167    -0.40200
N983        N  0.79475350  0.24514798  0.66272759    -0.37900
N984        N  0.89668641  0.24556409  0.66336241    -0.40300
N985        N  0.82374000  0.09419648  0.70339390    -0.40100
N986        N  0.91963896  0.08378008  0.70888992    -0.37700
N987        N  0.99358091  0.21499115  0.59672066    -0.38800
N988        N  0.89158843  0.21550064  0.58965476    -0.40400
C989        C  0.29716762  0.11143713  0.64896193    -0.05400
C990        C  0.33047950  0.14090802  0.65755758     0.08800
C991        C  0.32836823  0.17183342  0.66454049    -0.02800
C992        C  0.29279332  0.17270187  0.66366040    -0.01000
C993        C  0.25949087  0.14425067  0.65389422    -0.04600
C994        C  0.26218512  0.11347621  0.64660983     0.02400
C995        C  0.36782513  0.13910740  0.65939907     0.09200
C996        C  0.36311326  0.20293656  0.67261919     0.35100
C997        C  0.22864298  0.08243327  0.63773487     0.38600
C998        C  0.39799450  0.16183491  0.64094869    -0.05000
C999        C  0.43283398  0.15967850  0.64239832     0.02200
C1000       C  0.43709434  0.13325857  0.66178847    -0.04600
C1001       C  0.40667000  0.11022714  0.68020407    -0.00800
C1002       C  0.37258141  0.11389188  0.67925462    -0.03400
C1003       C  0.39269518  0.18676691  0.62016118     0.35900
C1004       C  0.40927594  0.08107055  0.69939079     0.39500
C1005       C  0.46461169  0.18530891  0.62404563     0.38600
C1006       C  0.34201569  0.09144473  0.69855018     0.35500
C1007       C  0.29895475  0.07860335  0.64281474     0.36200
C1008       C  0.29095019  0.20273301  0.67335760     0.39500
N1009       N  0.48990501  0.20598632  0.60940411    -0.38600
N1010       N  0.38824244  0.20635774  0.60350019    -0.40200
N1011       N  0.41080070  0.05729253  0.71458500    -0.37900
N1012       N  0.31747361  0.07382322  0.71387050    -0.40300
N1013       N  0.39099690  0.22790309  0.67880622    -0.40100
N1014       N  0.29005318  0.22646242  0.68166669    -0.37700
N1015       N  0.20248079  0.05715945  0.63058994    -0.38800
N1016       N  0.30059060  0.05236082  0.63818511    -0.40400
C1017       C  0.66618874  0.61876088  0.85054424    -0.05400
C1018       C  0.63673923  0.59821737  0.83591260     0.08800
C1019       C  0.60065410  0.56523742  0.84632490    -0.02800
C1020       C  0.59358357  0.55327006  0.87138446    -0.01000
C1021       C  0.62085414  0.57716568  0.88632970    -0.04600
C1022       C  0.65848829  0.60851502  0.87560136     0.02400
C1023       C  0.64348953  0.61102313  0.80936075     0.09200
C1024       C  0.57030727  0.54412249  0.83105435     0.35100
C1025       C  0.69029066  0.62944942  0.89004786     0.38600
C1026       C  0.65353400  0.59024699  0.79655411    -0.05000
C1027       C  0.65439930  0.59859804  0.77140010     0.02200
C1028       C  0.64647214  0.62873256  0.75897528    -0.04600
C1029       C  0.63893293  0.65123980  0.77181681    -0.00800
C1030       C  0.63688662  0.64199422  0.79697357    -0.03400
C1031       C  0.66164420  0.55932487  0.80934392     0.35900
C1032       C  0.63278744  0.68362589  0.75916996     0.39500
C1033       C  0.66045372  0.57405185  0.75853387     0.38600
C1034       C  0.62632404  0.66316269  0.81018475     0.35500
C1035       C  0.70427668  0.65098233  0.83957554     0.36200
C1036       C  0.55957835  0.51472669  0.88114723     0.39500
N1037       N  0.66495391  0.55410634  0.74843292    -0.38600
N1038       N  0.66822348  0.53469870  0.81947393    -0.40200
N1039       N  0.62798516  0.70958248  0.74920944    -0.37900
N1040       N  0.61770549  0.67989910  0.82073139    -0.40300
N1041       N  0.54616034  0.52768468  0.81878198    -0.40100
N1042       N  0.53298375  0.48303396  0.88796415    -0.37700
N1043       N  0.71610088  0.64625889  0.90129448    -0.38800
N1044       N  0.73451606  0.67660271  0.83060685    -0.40400
C1045       C  0.55172788  0.84243636  0.01965691    -0.05400
C1046       C  0.56179106  0.83349465  0.99958638     0.08800
C1047       C  0.57452648  0.86171175  0.97759009    -0.02800
C1048       C  0.57764338  0.89929519  0.97565747    -0.01000
C1049       C  0.56731310  0.90848858  0.99569685    -0.04600
C1050       C  0.55397042  0.87964789  0.01770895     0.02400
C1051       C  0.55849621  0.79388656  0.00145341     0.09200
C1052       C  0.58428649  0.85177113  0.95696314     0.35100
C1053       C  0.54073132  0.88715030  0.03813543     0.38600
C1054       C  0.52293203  0.76175703  0.99687396    -0.05000
C1055       C  0.52059299  0.72512846  0.99672765     0.02200
C1056       C  0.55385951  0.72040885  0.00142369    -0.04600
C1057       C  0.58882061  0.75209926  0.00759670    -0.00800
C1058       C  0.59118723  0.78893581  0.00722713    -0.03400
C1059       C  0.48888064  0.76671862  0.99205623     0.35900
C1060       C  0.62289954  0.74767357  0.01373226     0.39500
C1061       C  0.48355024  0.69220705  0.99225406     0.38600
C1062       C  0.62753393  0.82225975  0.01220306     0.35500
C1063       C  0.53869859  0.81294134  0.04220142     0.36200
C1064       C  0.59251263  0.92873895  0.95318537     0.39500
N1065       N  0.45365243  0.66634871  0.98872235    -0.38600
N1066       N  0.46176862  0.77076506  0.98830060    -0.40200
N1067       N  0.65022351  0.74462075  0.01897941    -0.37900
N1068       N  0.65644080  0.84901748  0.01605016    -0.40300
N1069       N  0.59187525  0.84346246  0.94062578    -0.40100
N1070       N  0.60452628  0.95202201  0.93518174    -0.37700
N1071       N  0.52971098  0.89226042  0.05462916    -0.38800
N1072       N  0.52840995  0.78915131  0.06004914    -0.40400
C1073       C  0.52530611  0.26086111  0.00302062    -0.05400
C1074       C  0.54801181  0.29418310  0.98433595     0.08800
C1075       C  0.56930268  0.29090799  0.96677370    -0.02800
C1076       C  0.56899644  0.25479174  0.96832728    -0.01000
C1077       C  0.54692399  0.22162903  0.98727110    -0.04600
C1078       C  0.52413980  0.22430127  0.00421713     0.02400
C1079       C  0.55152488  0.33362322  0.98373334     0.09200
C1080       C  0.59186346  0.32494501  0.94723390     0.35100
C1081       C  0.49799611  0.18902505  0.02203268     0.38600
C1082       C  0.58595361  0.36360067  0.99106515    -0.05000
C1083       C  0.59128180  0.40213466  0.98875240     0.02200
C1084       C  0.56065353  0.41013108  0.98084471    -0.04600
C1085       C  0.52520312  0.37902464  0.97466270    -0.00800
C1086       C  0.52126543  0.34137393  0.97536772    -0.03400
C1087       C  0.61549970  0.35426155  0.00162877     0.35900
C1088       C  0.49156693  0.38434774  0.96902884     0.39500
C1089       C  0.62876573  0.43330671  0.99423968     0.38600
C1090       C  0.48569390  0.31026621  0.96793757     0.35500
C1091       C  0.50374772  0.26453382  0.02115351     0.36200
C1092       C  0.59160128  0.25185136  0.95044792     0.39500
N1093       N  0.65902907  0.45749525  0.99868589    -0.38600
N1094       N  0.63868734  0.34648803  0.01030910    -0.40200
N1095       N  0.46416614  0.38762826  0.96467256    -0.37900
N1096       N  0.45722238  0.28556648  0.96204417    -0.40300
N1097       N  0.60987903  0.35211439  0.93168249    -0.40100
N1098       N  0.60939640  0.24948895  0.93606721    -0.37700
N1099       N  0.47650333  0.16080449  0.03599073    -0.38800
N1100       N  0.48669239  0.26770956  0.03558953    -0.40400
C1101       C  0.64875612  0.09764556  0.85132870    -0.05400
C1102       C  0.61791815  0.09470635  0.83672636     0.08800
C1103       C  0.57936324  0.07648664  0.84700993    -0.02800
C1104       C  0.57227437  0.06550480  0.87198611    -0.01000
C1105       C  0.60346955  0.07017566  0.88686689    -0.04600
C1106       C  0.64151627  0.08517226  0.87637217     0.02400
C1107       C  0.62543926  0.11155131  0.81045519     0.09200
C1108       C  0.54701120  0.06968924  0.83172449     0.35100
C1109       C  0.67356086  0.08900701  0.89133326     0.38600
C1110       C  0.62986289  0.09010357  0.79542936    -0.05000
C1111       C  0.62997496  0.10214264  0.77049989     0.02200
C1112       C  0.62542906  0.13563795  0.76051805    -0.04600
C1113       C  0.62323255  0.15843112  0.77551986    -0.00800
C1114       C  0.62339353  0.14647895  0.80048176    -0.03400
C1115       C  0.63254735  0.05462050  0.80581126     0.35900
C1116       C  0.62111877  0.19425224  0.76525818     0.39500
C1117       C  0.63263528  0.07862431  0.75528752     0.38600
C1118       C  0.62035860  0.16936798  0.81604907     0.35500
C1119       C  0.68793064  0.11381958  0.84061059     0.36200
C1120       C  0.53373349  0.05358686  0.88196646     0.39500
N1121       N  0.63484200  0.05971289  0.74329459    -0.38600
N1122       N  0.63483652  0.02652163  0.81441138    -0.40200
N1123       N  0.61963893  0.22294687  0.75705795    -0.37900
N1124       N  0.61784388  0.18741628  0.82857853    -0.40300
N1125       N  0.52132600  0.06406672  0.81945316    -0.40100
N1126       N  0.50292031  0.04500361  0.88927851    -0.37700
N1127       N  0.69925025  0.09235861  0.90320472    -0.38800
N1128       N  0.71912888  0.12625173  0.83212321    -0.40400
C1129       C  0.77895197  0.26442806  0.00977457    -0.05400
C1130       C  0.79364247  0.29866867  0.99078833     0.08800
C1131       C  0.77115418  0.29844697  0.97079128    -0.02800
C1132       C  0.73480312  0.26396753  0.96948302    -0.01000
C1133       C  0.72014601  0.22948512  0.98836622    -0.04600
C1134       C  0.74238242  0.23002664  0.00862440     0.02400
C1135       C  0.83231331  0.33547283  0.99213426     0.09200
C1136       C  0.78512149  0.33414382  0.95173573     0.35100
C1137       C  0.72810050  0.19486200  0.02811626     0.38600
C1138       C  0.86814624  0.33839927  0.98596356    -0.05000
C1139       C  0.90436506  0.37366589  0.98644104     0.02200
C1140       C  0.90524921  0.40595269  0.99406154    -0.04600
C1141       C  0.86908144  0.40258653  0.00035814    -0.00800
C1142       C  0.83299772  0.36774033  0.99924867    -0.03400
C1143       C  0.86763829  0.30486378  0.97921770     0.35900
C1144       C  0.86837889  0.43568570  0.00684961     0.39500
C1145       C  0.94057315  0.37644702  0.97900063     0.38600
C1146       C  0.79627169  0.36520516  0.00525138     0.35500
C1147       C  0.80132768  0.26502522  0.03069263     0.36200
C1148       C  0.71195854  0.26449579  0.94893656     0.39500
N1149       N  0.96933826  0.37881368  0.97269963    -0.38600
N1150       N  0.86713709  0.27792388  0.97404086    -0.40200
N1151       N  0.86703706  0.46175720  0.01195348    -0.37900
N1152       N  0.76705605  0.36342781  0.00992748    -0.40300
N1153       N  0.79607150  0.36274554  0.93663299    -0.40100
N1154       N  0.69391506  0.26505848  0.93245887    -0.37700
N1155       N  0.71670342  0.16681722  0.04367257    -0.38800
N1156       N  0.81933564  0.26583738  0.04734033    -0.40400
C1157       C  0.36033157  0.84417456  0.98371753    -0.05400
C1158       C  0.32558858  0.84525570  0.98694622     0.08800
C1159       C  0.32813533  0.88085196  0.99015859    -0.02800
C1160       C  0.36525430  0.91484407  0.99075314    -0.01000
C1161       C  0.40011730  0.91330396  0.98845563    -0.04600
C1162       C  0.39741291  0.87779641  0.98475092     0.02400
C1163       C  0.28633776  0.80835138  0.98755358     0.09200
C1164       C  0.29249844  0.88241000  0.99290897     0.35100
C1165       C  0.43262657  0.87507310  0.98294976     0.38600
C1166       C  0.27163871  0.77741987  0.00844036    -0.05000
C1167       C  0.23547371  0.74189451  0.00883177     0.02200
C1168       C  0.21313399  0.73733389  0.98844986    -0.04600
C1169       C  0.22783157  0.76867997  0.96762095    -0.00800
C1170       C  0.26478275  0.80343405  0.96699132    -0.03400
C1171       C  0.29475659  0.78157165  0.02921138     0.35900
C1172       C  0.20463856  0.76592367  0.94694790     0.39500
C1173       C  0.22246435  0.70920814  0.02981150     0.38600
C1174       C  0.28170952  0.83325474  0.94480232     0.35500
C1175       C  0.35773498  0.80821294  0.97931448     0.36200
C1176       C  0.36761496  0.95178869  0.99305645     0.39500
N1177       N  0.21226851  0.68303199  0.04647847    -0.38600
N1178       N  0.31356300  0.78493634  0.04561578    -0.40200
N1179       N  0.18634634  0.76441609  0.93038708    -0.37900
N1180       N  0.29559644  0.85669496  0.92700842    -0.40300
N1181       N  0.26408362  0.88371462  0.99505259    -0.40100
N1182       N  0.36971592  0.98139971  0.99478171    -0.37700
N1183       N  0.46055261  0.87260312  0.98157789    -0.38800
N1184       N  0.35542248  0.77947341  0.97571696    -0.40400
C1185       C  0.10071626  0.60407017  0.84851410    -0.05400
C1186       C  0.11627826  0.58313807  0.84034471     0.08800
C1187       C  0.12488501  0.55667926  0.85678910    -0.02800
C1188       C  0.11823397  0.55142859  0.88155491    -0.01000
C1189       C  0.10311269  0.57282861  0.88974845    -0.04600
C1190       C  0.09411229  0.59895401  0.87312515     0.02400
C1191       C  0.12187585  0.58842145  0.81416224     0.09200
C1192       C  0.14045804  0.53495811  0.84811871     0.35100
C1193       C  0.07677667  0.61972921  0.88117525     0.38600
C1194       C  0.15468782  0.62294522  0.80107662    -0.05000
C1195       C  0.15570985  0.63275237  0.77595715     0.02200
C1196       C  0.12417676  0.60753891  0.76393115    -0.04600
C1197       C  0.09277713  0.57140888  0.77704294    -0.00800
C1198       C  0.09152618  0.56202554  0.80214870    -0.03400
C1199       C  0.18699324  0.64863843  0.81357236     0.35900
C1200       C  0.06212477  0.54334231  0.76479945     0.39500
C1201       C  0.18843819  0.66952003  0.76261026     0.38600
C1202       C  0.05867846  0.52558300  0.81570539     0.35500
C1203       C  0.09091653  0.63045462  0.83141866     0.36200
C1204       C  0.12756657  0.52463823  0.89848809     0.39500
N1205       N  0.21458620  0.69888708  0.75203169    -0.38600
N1206       N  0.21291415  0.66899188  0.82352246    -0.40200
N1207       N  0.03754877  0.52043291  0.75536885    -0.37900
N1208       N  0.03259778  0.49642284  0.82651209    -0.40300
N1209       N  0.15276823  0.51761055  0.84108271    -0.40100
N1210       N  0.13512003  0.50313078  0.91181166    -0.37700
N1211       N  0.06266735  0.63638425  0.88712529    -0.38800
N1212       N  0.08318785  0.65134740  0.81763489    -0.40400
C1213       C  0.77466422  0.75651832  0.02125622    -0.05400
C1214       C  0.78717051  0.79369487  0.00503959     0.08800
C1215       C  0.76438634  0.79604084  0.98557145    -0.02800
C1216       C  0.72936891  0.76163561  0.98238431    -0.01000
C1217       C  0.71743124  0.72424067  0.99823633    -0.04600
C1218       C  0.74048394  0.72176111  0.01753188     0.02400
C1219       C  0.82502825  0.83034318  0.00777103     0.09200
C1220       C  0.77716167  0.83406271  0.96878767     0.35100
C1221       C  0.73005693  0.68300993  0.03281850     0.38600
C1222       C  0.85986559  0.84119118  0.99480095    -0.05000
C1223       C  0.89454938  0.87781968  0.99517500     0.02200
C1224       C  0.89513644  0.90339446  0.00918244    -0.04600
C1225       C  0.86041375  0.89225788  0.02241443    -0.00800
C1226       C  0.82552694  0.85584151  0.02175617    -0.03400
C1227       C  0.85959707  0.81489435  0.98061299     0.35900
C1228       C  0.86027979  0.91904003  0.03599939     0.39500
C1229       C  0.92894279  0.89038625  0.97992417     0.38600
C1230       C  0.78977762  0.84485072  0.03502785     0.35500
C1231       C  0.79685478  0.75406401  0.04184800     0.36200
C1232       C  0.70509316  0.76493621  0.96313361     0.39500
N1233       N  0.95614672  0.90061801  0.96747701    -0.38600
N1234       N  0.85909607  0.79366714  0.96939053    -0.40200
N1235       N  0.86018454  0.94064247  0.04667816    -0.37900
N1236       N  0.76109695  0.83577629  0.04558366    -0.40300
N1237       N  0.78764492  0.86447259  0.95540411    -0.40100
N1238       N  0.68560994  0.76756679  0.94785052    -0.37700
N1239       N  0.72182498  0.65189283  0.04467870    -0.38800
N1240       N  0.81419623  0.75198579  0.05847197    -0.40400
C1241       C  0.25821900  0.30482017  0.97494242    -0.05400
C1242       C  0.29429565  0.30573020  0.97293340     0.08800
C1243       C  0.29434066  0.27139562  0.96962527    -0.02800
C1244       C  0.25851226  0.23565597  0.96979944    -0.01000
C1245       C  0.22223779  0.23379082  0.97347271    -0.04600
C1246       C  0.22236026  0.26924524  0.97483030     0.02400
C1247       C  0.33220187  0.34245122  0.97510301     0.09200
C1248       C  0.33138465  0.27282471  0.96619341     0.35100
C1249       C  0.18584660  0.26958224  0.97626931     0.38600
C1250       C  0.35183705  0.34297389  0.99637368    -0.05000
C1251       C  0.38766424  0.37724102  0.99855769     0.02200
C1252       C  0.40352764  0.41200844  0.97976733    -0.04600
C1253       C  0.38339843  0.41156761  0.95859324    -0.00800
C1254       C  0.34825939  0.37673384  0.95615701    -0.03400
C1255       C  0.33494333  0.30805804  0.01610237     0.35900
C1256       C  0.39782254  0.44732576  0.93954746     0.39500
C1257       C  0.40888056  0.37553720  0.01976045     0.38600
C1258       C  0.32850863  0.37613816  0.93411021     0.35500
C1259       C  0.25798003  0.34035579  0.97770189     0.36200
C1260       C  0.25905557  0.20135865  0.96505711     0.39500
N1261       N  0.42516835  0.37275787  0.03678671    -0.38600
N1262       N  0.32133330  0.28014057  0.03177001    -0.40200
N1263       N  0.40862606  0.47562343  0.92422544    -0.37900
N1264       N  0.31277720  0.37575171  0.91651282    -0.40300
N1265       N  0.36090426  0.27388393  0.96350138    -0.40100
N1266       N  0.25977811  0.17435953  0.96089813    -0.37700
N1267       N  0.15726212  0.27104981  0.97690696    -0.38800
N1268       N  0.25770210  0.36867989  0.97981607    -0.40400
C1269       C  0.01885398  0.83500754  0.00490814    -0.05400
C1270       C  0.04117880  0.83329116  0.98723559     0.08800
C1271       C  0.06314681  0.86749398  0.96896920    -0.02800
C1272       C  0.06613800  0.90434673  0.96966461    -0.01000
C1273       C  0.04432342  0.90668227  0.98771850    -0.04600
C1274       C  0.01884913  0.87081412  0.00450481     0.02400
C1275       C  0.04211523  0.79554310  0.98816662     0.09200
C1276       C  0.08274374  0.86465871  0.94933522     0.35100
C1277       C  0.99092917  0.86950818  0.02078495     0.38600
C1278       C  0.00874512  0.76171566  0.98303992    -0.05000
C1279       C  0.00878367  0.72542744  0.98530722     0.02200
C1280       C  0.04277276  0.72275066  0.99222140    -0.04600
C1281       C  0.07670081  0.75743482  0.99664564    -0.00800
C1282       C  0.07626524  0.79350327  0.99459511    -0.03400
C1283       C  0.97443887  0.76457852  0.97501250     0.35900
C1284       C  0.11279351  0.75694051  0.00259110     0.39500
C1285       C  0.97309372  0.69085369  0.98100546     0.38600
C1286       C  0.11136359  0.82902159  0.99862610     0.35500
C1287       C  0.99597856  0.79980877  0.02374753     0.36200
C1288       C  0.09269550  0.93955556  0.95191668     0.39500
N1289       N  0.94413707  0.66391785  0.97740455    -0.38600
N1290       N  0.94718665  0.76700559  0.96859356    -0.40200
N1291       N  0.14183319  0.75716942  0.00743135    -0.37900
N1292       N  0.13935820  0.85764715  0.00143143    -0.40300
N1293       N  0.09821314  0.86245991  0.93358765    -0.40100
N1294       N  0.11406922  0.96716981  0.93757099    -0.37700
N1295       N  0.96806416  0.86767106  0.03366310    -0.38800
N1296       N  0.97772739  0.77181558  0.03879318    -0.40400
C1297       C  0.05181719  0.28275581  0.98328476    -0.05400
C1298       C  0.07443754  0.30526701  0.99986223     0.08800
C1299       C  0.09428748  0.29071963  0.01659713    -0.02800
C1300       C  0.09176012  0.25385733  0.01657567    -0.01000
C1301       C  0.06824152  0.23086741  0.00036510    -0.04600
C1302       C  0.04781470  0.24514062  0.98396975     0.02400
C1303       C  0.07686629  0.34424064  0.99962366     0.09200
C1304       C  0.11778770  0.31407984  0.03349407     0.35100
C1305       C  0.02171086  0.22059963  0.96828215     0.38600
C1306       C  0.04571914  0.34466373  0.01046321    -0.05000
C1307       C  0.04655053  0.38115485  0.00883049     0.02200
C1308       C  0.07819218  0.41727470  0.99596424    -0.04600
C1309       C  0.11003766  0.41703930  0.98588958    -0.00800
C1310       C  0.10923446  0.38049316  0.98755878    -0.03400
C1311       C  0.01257481  0.30739689  0.02300832     0.35900
C1312       C  0.14352576  0.45434416  0.97378809     0.39500
C1313       C  0.01522627  0.38163321  0.02083012     0.38600
C1314       C  0.14118108  0.37993235  0.97640761     0.35500
C1315       C  0.03350145  0.29890261  0.96511441     0.36200
C1316       C  0.11518256  0.24069481  0.03213968     0.39500
N1317       N  0.99026743  0.38190140  0.03049821    -0.38600
N1318       N  0.98608242  0.27761374  0.03289848    -0.40200
N1319       N  0.17039963  0.48408389  0.96422332    -0.37900
N1320       N  0.16654991  0.37929796  0.96750194    -0.40300
N1321       N  0.13655903  0.33287315  0.04691797    -0.40100
N1322       N  0.13418382  0.23015701  0.04416405    -0.37700
N1323       N  0.00050093  0.20087305  0.95596430    -0.38800
N1324       N  0.01933692  0.31210429  0.95047217    -0.40400
C1325       C  0.15024542  0.15625134  0.84845168    -0.05400
C1326       C  0.12087433  0.15923901  0.83440855     0.08800
C1327       C  0.08716522  0.15429131  0.84575647    -0.02800
C1328       C  0.08202502  0.14473961  0.87093552    -0.01000
C1329       C  0.11043191  0.13977071  0.88497103    -0.04600
C1330       C  0.14513566  0.14676604  0.87368902     0.02400
C1331       C  0.12274678  0.16245558  0.80793328     0.09200
C1332       C  0.05674209  0.15689766  0.83144736     0.35100
C1333       C  0.17562436  0.14440859  0.88805553     0.38600
C1334       C  0.10668179  0.12713575  0.79926689    -0.05000
C1335       C  0.10552903  0.12907866  0.77445569     0.02200
C1336       C  0.12085892  0.16644070  0.75800849    -0.04600
C1337       C  0.13719184  0.20188546  0.76663083    -0.00800
C1338       C  0.13793827  0.19987741  0.79155490    -0.03400
C1339       C  0.09027679  0.08860991  0.81606436     0.35900
C1340       C  0.15254852  0.24032026  0.74989994     0.39500
C1341       C  0.08755503  0.09238948  0.76586505     0.38600
C1342       C  0.15335355  0.23614305  0.80037384     0.35500
C1343       C  0.18498686  0.16141835  0.83691573     0.36200
C1344       C  0.04651472  0.13804239  0.88245514     0.39500
N1345       N  0.07297685  0.06299133  0.75914481    -0.38600
N1346       N  0.07719040  0.05807666  0.82964594    -0.40200
N1347       N  0.16484198  0.27112794  0.73666532    -0.37900
N1348       N  0.16547666  0.26515699  0.80733171    -0.40300
N1349       N  0.03242423  0.15876468  0.81997159    -0.40100
N1350       N  0.01825027  0.13259813  0.89177100    -0.37700
N1351       N  0.20017925  0.14292311  0.89945631    -0.38800
N1352       N  0.21268746  0.16536175  0.82777358    -0.40400
C1353       C  0.56098203  0.56427316  0.51611972    -0.05400
C1354       C  0.55277313  0.59286602  0.50160760     0.08800
C1355       C  0.55462788  0.62385634  0.51095363    -0.02800
C1356       C  0.56598171  0.62712870  0.53435426    -0.01000
C1357       C  0.57395241  0.59842955  0.54892034    -0.04600
C1358       C  0.57137584  0.56694115  0.53979233     0.02400
C1359       C  0.54432773  0.59170577  0.47601792     0.09200
C1360       C  0.54480079  0.65237412  0.49641360     0.35100
C1361       C  0.57896920  0.53709878  0.55484080     0.38600
C1362       C  0.50722238  0.56338686  0.47000148    -0.05000
C1363       C  0.50024928  0.56111886  0.44587781     0.02200
C1364       C  0.53046155  0.58706873  0.42771776    -0.04600
C1365       C  0.56680186  0.61685313  0.43368070    -0.00800
C1366       C  0.57376865  0.61907309  0.45773596    -0.03400
C1367       C  0.47651050  0.53629111  0.48874182     0.35900
C1368       C  0.59684573  0.64574406  0.41494181     0.39500
C1369       C  0.46247745  0.53125851  0.43984438     0.38600
C1370       C  0.61143630  0.64927064  0.46376368     0.35500
C1371       C  0.55863317  0.53210967  0.50663862     0.36200
C1372       C  0.57142790  0.66124930  0.54300080     0.39500
N1373       N  0.43226514  0.50754457  0.43500690    -0.38600
N1374       N  0.45219655  0.51471677  0.50381181    -0.40200
N1375       N  0.62066575  0.66906956  0.39999745    -0.37900
N1376       N  0.64128932  0.67346638  0.46868301    -0.40300
N1377       N  0.53684678  0.67501256  0.48478919    -0.40100
N1378       N  0.57634909  0.68885618  0.54965880    -0.37700
N1379       N  0.58498524  0.51326343  0.56685620    -0.38800
N1380       N  0.55644565  0.50636025  0.49901581    -0.40400
C1381       C  0.54285941  0.55063425  0.18111722    -0.05400
C1382       C  0.50699514  0.53107967  0.17057002     0.08800
C1383       C  0.47137755  0.50959962  0.18477787    -0.02800
C1384       C  0.47145538  0.50778131  0.20954236    -0.01000
C1385       C  0.50729513  0.52827430  0.22024597    -0.04600
C1386       C  0.54309325  0.54955638  0.20582497     0.02400
C1387       C  0.50673028  0.53463298  0.14419767     0.09200
C1388       C  0.43456535  0.49011012  0.17367516     0.35100
C1389       C  0.58012989  0.57240280  0.21586927     0.38600
C1390       C  0.50484528  0.50403559  0.13441750    -0.05000
C1391       C  0.50785631  0.50906251  0.10941648     0.02200
C1392       C  0.51213923  0.54454489  0.09418109    -0.04600
C1393       C  0.51213770  0.57425286  0.10404079    -0.00800
C1394       C  0.50938565  0.56925532  0.12900065    -0.03400
C1395       C  0.50041385  0.46770720  0.15014378     0.35900
C1396       C  0.51509426  0.61006284  0.08847264     0.39500
C1397       C  0.50896028  0.47878627  0.09954317     0.38600
C1398       C  0.50959754  0.59988175  0.13913536     0.35500
C1399       C  0.57948514  0.57284941  0.16628716     0.36200
C1400       C  0.43444389  0.48415536  0.22391751     0.39500
N1401       N  0.51010607  0.45455072  0.09192484    -0.38600
N1402       N  0.49660831  0.43863879  0.16271704    -0.40200
N1403       N  0.51756057  0.63862981  0.07601623    -0.37900
N1404       N  0.50975256  0.62428851  0.14724962    -0.40300
N1405       N  0.40536966  0.47476023  0.16464456    -0.40100
N1406       N  0.40462653  0.46500785  0.23507994    -0.37700
N1407       N  0.61003007  0.59106802  0.22341243    -0.38800
N1408       N  0.60859469  0.59063900  0.15438219    -0.40400
C1409       C  0.53726659  0.11793748  0.46015382    -0.05400
C1410       C  0.53468473  0.08565546  0.47795450     0.08800
C1411       C  0.52405568  0.04906847  0.47191484    -0.02800
C1412       C  0.51693538  0.04507584  0.44809132    -0.01000
C1413       C  0.52062100  0.07776023  0.43008413    -0.04600
C1414       C  0.53007863  0.11397064  0.43627259     0.02400
C1415       C  0.54310059  0.09007799  0.50320185     0.09200
C1416       C  0.52108234  0.01572903  0.49020672     0.35100
C1417       C  0.53379325  0.14750975  0.41789845     0.38600
C1418       C  0.51246502  0.07963642  0.51969932    -0.05000
C1419       C  0.51966059  0.08178671  0.54384120     0.02200
C1420       C  0.55858811  0.09675632  0.55174596    -0.04600
C1421       C  0.58944843  0.10740538  0.53454574    -0.00800
C1422       C  0.58149093  0.10400263  0.51060017    -0.03400
C1423       C  0.47332198  0.06736700  0.51149452     0.35900
C1424       C  0.62985968  0.12198542  0.54073296     0.39500
C1425       C  0.48589268  0.06680375  0.56021613     0.38600
C1426       C  0.61311315  0.11577795  0.49315532     0.35500
C1427       C  0.54820132  0.15543288  0.46649861     0.36200
C1428       C  0.50535473  0.00707223  0.44215498     0.39500
N1429       N  0.45793721  0.05398652  0.57260412    -0.38600
N1430       N  0.44233050  0.05809335  0.50474579    -0.40200
N1431       N  0.66240089  0.13342178  0.54490396    -0.37900
N1432       N  0.63818252  0.12536395  0.47912680    -0.40300
N1433       N  0.51879600  0.98916331  0.50478373    -0.40100
N1434       N  0.49592380  0.97664591  0.43754139    -0.37700
N1435       N  0.53665912  0.17410938  0.40311164    -0.38800
N1436       N  0.55708791  0.18516689  0.47189355    -0.40400
C1437       C  0.56074783  0.79224516  0.32125427    -0.05400
C1438       C  0.52380900  0.78984406  0.32210279     0.08800
C1439       C  0.48920115  0.75259525  0.32417889    -0.02800
C1440       C  0.49132991  0.71771981  0.32552398    -0.01000
C1441       C  0.52831308  0.71962972  0.32482253    -0.04600
C1442       C  0.56310788  0.75739575  0.32232206     0.02400
C1443       C  0.52103268  0.82622455  0.32195605     0.09200
C1444       C  0.45112053  0.74997731  0.32535038     0.35100
C1445       C  0.60147300  0.76068748  0.32161352     0.38600
C1446       C  0.51502882  0.84755192  0.30057394    -0.05000
C1447       C  0.51048712  0.88071816  0.30077128     0.02200
C1448       C  0.51195505  0.89273830  0.32243828    -0.04600
C1449       C  0.51853815  0.87151621  0.34379558    -0.00800
C1450       C  0.52279185  0.83826833  0.34352289    -0.03400
C1451       C  0.51313238  0.83505106  0.27839970     0.35900
C1452       C  0.52250732  0.88462087  0.36598814     0.39500
C1453       C  0.50326718  0.90173072  0.27875110     0.38600
C1454       C  0.52868602  0.81609350  0.36552722     0.35500
C1455       C  0.59631240  0.83056566  0.31992556     0.36200
C1456       C  0.45493929  0.68006068  0.32719418     0.39500
N1457       N  0.49762086  0.91863799  0.26121985    -0.38600
N1458       N  0.51154370  0.82515047  0.26066919    -0.40200
N1459       N  0.52583390  0.89492965  0.38374077    -0.37900
N1460       N  0.53334160  0.79836803  0.38306907    -0.40300
N1461       N  0.42057597  0.74742589  0.32634392    -0.40100
N1462       N  0.42550963  0.65036309  0.32876203    -0.37700
N1463       N  0.63244515  0.76415034  0.32097166    -0.38800
N1464       N  0.62462395  0.86108295  0.31909451    -0.40400
C1465       C  0.49025309  0.33272685  0.30294428    -0.05400
C1466       C  0.49180262  0.30973061  0.32508223     0.08800
C1467       C  0.49358329  0.32261036  0.34633561    -0.02800
C1468       C  0.49552278  0.35933457  0.34538792    -0.01000
C1469       C  0.49411856  0.38264672  0.32321553    -0.04600
C1470       C  0.49069443  0.36882837  0.30204572     0.02400
C1471       C  0.49421295  0.27314565  0.32605850     0.09200
C1472       C  0.49412725  0.29821831  0.36915644     0.35100
C1473       C  0.48620925  0.39087024  0.27948773     0.38600
C1474       C  0.52999911  0.27384805  0.33126483    -0.05000
C1475       C  0.53179686  0.23859900  0.33439308     0.02200
C1476       C  0.49885018  0.20353414  0.33018692    -0.04600
C1477       C  0.46410998  0.20371748  0.32293494    -0.00800
C1478       C  0.46108764  0.23791034  0.32208695    -0.03400
C1479       C  0.56526937  0.31116554  0.33261860     0.35900
C1480       C  0.43308849  0.17027056  0.31422931     0.39500
C1481       C  0.56759059  0.23848380  0.34184013     0.38600
C1482       C  0.42421417  0.23701096  0.31677419     0.35500
C1483       C  0.48873321  0.31938380  0.28111260     0.36200
C1484       C  0.50068557  0.37371229  0.36719875     0.39500
N1485       N  0.59611425  0.23847592  0.34789476    -0.38600
N1486       N  0.59352137  0.34098421  0.33338451    -0.40200
N1487       N  0.40895801  0.14410545  0.30662834    -0.37900
N1488       N  0.39475566  0.23617895  0.31249606    -0.40300
N1489       N  0.49470232  0.27866335  0.38723626    -0.40100
N1490       N  0.50501060  0.38484355  0.38472279    -0.37700
N1491       N  0.48220233  0.40801746  0.26145163    -0.38800
N1492       N  0.48735426  0.30837140  0.26382833    -0.40400
C1493       C  0.54429341  0.07361508  0.18193284    -0.05400
C1494       C  0.51195447  0.05134058  0.16940518     0.08800
C1495       C  0.47495626  0.02404406  0.18168559    -0.02800
C1496       C  0.47055043  0.01797272  0.20670762    -0.01000
C1497       C  0.50308066  0.03998592  0.21944729    -0.04600
C1498       C  0.53978153  0.06846675  0.20679759     0.02400
C1499       C  0.51727056  0.05603006  0.14323277     0.09200
C1500       C  0.44146309  0.00268367  0.16835882     0.35100
C1501       C  0.57246406  0.09433770  0.21901525     0.38600
C1502       C  0.51962749  0.02638272  0.13468467    -0.05000
C1503       C  0.52549362  0.03099977  0.11004041     0.02200
C1504       C  0.52895329  0.06528407  0.09387554    -0.04600
C1505       C  0.52812168  0.09569089  0.10246538    -0.00800
C1506       C  0.52137354  0.09061913  0.12711160    -0.03400
C1507       C  0.51589275  0.99104111  0.15127671     0.35900
C1508       C  0.53388361  0.13199684  0.08601143     0.39500
C1509       C  0.52962763  0.00122331  0.10143664     0.38600
C1510       C  0.51781291  0.12054554  0.13585898     0.35500
C1511       C  0.58214700  0.10225546  0.16907083     0.36200
C1512       C  0.43268630  0.98869325  0.21924195     0.39500
N1513       N  0.53315592  0.97751912  0.09471963    -0.38600
N1514       N  0.51263298  0.96269709  0.16445640    -0.40200
N1515       N  0.53896201  0.16120571  0.07298200    -0.37900
N1516       N  0.51482040  0.14442382  0.14273444    -0.40300
N1517       N  0.41506214  0.98602386  0.15743693    -0.40100
N1518       N  0.40233909  0.96531920  0.22909335    -0.37700
N1519       N  0.59855629  0.11542518  0.22854379    -0.38800
N1520       N  0.61211073  0.12520894  0.15863498    -0.40400
C1521       C  0.03509893  0.54979547  0.52556849    -0.05400
C1522       C  0.06307503  0.57514385  0.50622951     0.08800
C1523       C  0.10112177  0.60402610  0.51052600    -0.02800
C1524       C  0.11105859  0.60803558  0.53406053    -0.01000
C1525       C  0.08257806  0.58379328  0.55346122    -0.04600
C1526       C  0.04468897  0.55412144  0.54909096     0.02400
C1527       C  0.05243365  0.57142190  0.48124032     0.09200
C1528       C  0.12976795  0.63053691  0.49059166     0.35100
C1529       C  0.01542470  0.52774044  0.56876333     0.38600
C1530       C  0.04537532  0.60018242  0.46589437    -0.05000
C1531       C  0.03751803  0.59783780  0.44188992     0.02200
C1532       C  0.03540972  0.56590328  0.43343417    -0.04600
C1533       C  0.03914260  0.53537127  0.44944567    -0.00800
C1534       C  0.04908226  0.53889853  0.47299096    -0.03400
C1535       C  0.04648512  0.63227480  0.47485900     0.35900
C1536       C  0.03060293  0.49917020  0.44214658     0.39500
C1537       C  0.03261003  0.62877168  0.42583395     0.38600
C1538       C  0.05639248  0.50932013  0.48867549     0.35500
C1539       C  0.99611141  0.51973279  0.52113101     0.36200
C1540       C  0.15019550  0.63847085  0.53786754     0.39500
N1541       N  0.02869706  0.65349355  0.41306654    -0.38600
N1542       N  0.04738498  0.65777149  0.48214013    -0.40200
N1543       N  0.02298321  0.46979109  0.43670061    -0.37900
N1544       N  0.06232289  0.48582327  0.50119690    -0.40300
N1545       N  0.15255422  0.65210994  0.47475778    -0.40100
N1546       N  0.18172799  0.66297478  0.54020710    -0.37700
N1547       N  0.99193209  0.50677480  0.58436578    -0.38800
N1548       N  0.96514212  0.49570410  0.51746906    -0.40400
C1549       C  0.78109398  0.50560794  0.35826110    -0.05400
C1550       C  0.77002970  0.52643148  0.33912208     0.08800
C1551       C  0.79626768  0.55028222  0.31879671    -0.02800
C1552       C  0.83406329  0.55469969  0.31803220    -0.01000
C1553       C  0.84487956  0.53283846  0.33683664    -0.04600
C1554       C  0.81815508  0.50828052  0.35700580     0.02400
C1555       C  0.73170609  0.52548568  0.34079271     0.09200
C1556       C  0.78406938  0.57006293  0.29858760     0.35100
C1557       C  0.82831781  0.48520287  0.37637180     0.38600
C1558       C  0.73108724  0.55832887  0.34611362    -0.05000
C1559       C  0.69581676  0.55954909  0.34560940     0.02200
C1560       C  0.66076756  0.52792565  0.33950831    -0.04600
C1561       C  0.66125112  0.49424747  0.33513779    -0.00800
C1562       C  0.69653408  0.49288568  0.33608227    -0.03400
C1563       C  0.76709970  0.59110798  0.35193757     0.35900
C1564       C  0.62536988  0.46056513  0.33009292     0.39500
C1565       C  0.69653546  0.59441085  0.35042163     0.38600
C1566       C  0.69674269  0.45782128  0.33242848     0.35500
C1567       C  0.75419028  0.48143869  0.37923872     0.36200
C1568       C  0.86262853  0.58401499  0.29869921     0.39500
N1569       N  0.69827748  0.62270969  0.35434228    -0.38600
N1570       N  0.79589467  0.61713094  0.35654933    -0.40200
N1571       N  0.59689139  0.43358464  0.32602997    -0.37900
N1572       N  0.69701702  0.42970696  0.32987960    -0.40300
N1573       N  0.77391918  0.58537090  0.28247204    -0.40100
N1574       N  0.88531948  0.60818042  0.28345881    -0.37700
N1575       N  0.83602207  0.46659568  0.39195293    -0.38800
N1576       N  0.73254767  0.46213936  0.39590437    -0.40400
C1577       C  0.21834507  0.53724660  0.30222318    -0.05400
C1578       C  0.24992656  0.56303812  0.31383361     0.08800
C1579       C  0.24415707  0.58550610  0.32751097    -0.02800
C1580       C  0.20680393  0.58191500  0.32987046    -0.01000
C1581       C  0.17441482  0.55541467  0.31858483    -0.04600
C1582       C  0.18091507  0.53354054  0.30437065     0.02400
C1583       C  0.28833003  0.56361569  0.31353812     0.09200
C1584       C  0.27669483  0.61162414  0.33973199     0.35100
C1585       C  0.14911779  0.50565372  0.29260146     0.38600
C1586       C  0.31928052  0.59191805  0.29629442    -0.05000
C1587       C  0.35512660  0.59163480  0.29621879     0.02200
C1588       C  0.36095590  0.56461423  0.31431101    -0.04600
C1589       C  0.32985506  0.53635678  0.33146645    -0.00800
C1590       C  0.29341760  0.53518709  0.33066086    -0.03400
C1591       C  0.31423539  0.62137405  0.27876672     0.35900
C1592       C  0.33493002  0.50754232  0.34957875     0.39500
C1593       C  0.38604953  0.61936702  0.27769496     0.38600
C1594       C  0.26068824  0.50407977  0.34715899     0.35500
C1595       C  0.22417774  0.51315677  0.28882638     0.36200
C1596       C  0.20243441  0.60621937  0.34375571     0.39500
N1597       N  0.41054535  0.64124032  0.26277231    -0.38600
N1598       N  0.31033624  0.64506590  0.26487162    -0.40200
N1599       N  0.33910292  0.48466557  0.36404369    -0.37900
N1600       N  0.23436735  0.47896642  0.36007106    -0.40300
N1601       N  0.30267769  0.63229404  0.34951568    -0.40100
N1602       N  0.19953459  0.62575024  0.35498804    -0.37700
N1603       N  0.12434915  0.48313114  0.28304532    -0.38800
N1604       N  0.22892976  0.49376866  0.27836415    -0.40400
C1605       C  0.97450520  0.54669901  0.13123937    -0.05400
C1606       C  0.00445231  0.55111428  0.14687384     0.08800
C1607       C  0.04231767  0.56283146  0.13782277    -0.02800
C1608       C  0.04999201  0.56917156  0.11311862    -0.01000
C1609       C  0.01993633  0.56462941  0.09736315    -0.04600
C1610       C  0.98224991  0.55366746  0.10650334     0.02400
C1611       C  0.99594982  0.54249780  0.17308688     0.09200
C1612       C  0.07303513  0.56733656  0.15409436     0.35100
C1613       C  0.95132015  0.54943543  0.09049655     0.38600
C1614       C  0.98849279  0.50539747  0.18753588    -0.05000
C1615       C  0.98393624  0.49854702  0.21257762     0.02200
C1616       C  0.98707016  0.52897591  0.22310680    -0.04600
C1617       C  0.99166719  0.56501513  0.20843968    -0.00800
C1618       C  0.99618503  0.57173526  0.18344649    -0.03400
C1619       C  0.98579593  0.47460822  0.17643147     0.35900
C1620       C  0.99325515  0.59592744  0.21897109     0.39500
C1621       C  0.97494831  0.45995059  0.22744406     0.38600
C1622       C  0.00186736  0.60901443  0.16830485     0.35500
C1623       C  0.93550891  0.53410329  0.14078205     0.36200
C1624       C  0.08795048  0.57756226  0.10428002     0.39500
N1625       N  0.96735526  0.42899395  0.23926814    -0.38600
N1626       N  0.98375564  0.45049904  0.16717157    -0.40200
N1627       N  0.99442509  0.62071361  0.22717524    -0.37900
N1628       N  0.00622114  0.63856295  0.15608254    -0.40300
N1629       N  0.09738761  0.57076541  0.16714271    -0.40100
N1630       N  0.11821724  0.58374399  0.09758687    -0.37700
N1631       N  0.92650052  0.54598008  0.07783521    -0.38800
N1632       N  0.90447883  0.52398673  0.14855652    -0.40400
C1633       C  0.00917023  0.06752022  0.47120685    -0.05400
C1634       C  0.04628336  0.09682952  0.47655061     0.08800
C1635       C  0.07613819  0.12126871  0.45800267    -0.02800
C1636       C  0.06926624  0.11583756  0.43437764    -0.01000
C1637       C  0.03245149  0.08577674  0.42912148    -0.04600
C1638       C  0.00234783  0.06178316  0.44763833     0.02400
C1639       C  0.05439734  0.10105017  0.50188452     0.09200
C1640       C  0.11427761  0.15148947  0.46339076     0.35100
C1641       C  0.96519414  0.02931174  0.44283128     0.38600
C1642       C  0.06313995  0.07415619  0.51790657    -0.05000
C1643       C  0.07114999  0.07823376  0.54171597     0.02200
C1644       C  0.06928765  0.10852793  0.54991381    -0.04600
C1645       C  0.06168649  0.13614672  0.53361599    -0.00800
C1646       C  0.05431534  0.13243563  0.50972903    -0.03400
C1647       C  0.06399377  0.04227462  0.50982071     0.35900
C1648       C  0.06373410  0.16983661  0.54110900     0.39500
C1649       C  0.08135929  0.05122012  0.55767406     0.38600
C1650       C  0.04715962  0.16123818  0.49306300     0.35500
C1651       C  0.97828639  0.04259822  0.49015635     0.36200
C1652       C  0.10021623  0.14126391  0.41551912     0.39500
N1653       N  0.08991965  0.02976087  0.57015193    -0.38600
N1654       N  0.06452375  0.01671646  0.50343505    -0.40200
N1655       N  0.06590775  0.19684561  0.54720636    -0.37900
N1656       N  0.04176167  0.18434068  0.47965603    -0.40300
N1657       N  0.14466537  0.17561435  0.46773851    -0.40100
N1658       N  0.12517275  0.16183136  0.40065755    -0.37700
N1659       N  0.93570025  0.00305666  0.43915900    -0.38800
N1660       N  0.95372146  0.02266562  0.50531716    -0.40400
C1661       C  0.02420942  0.76389264  0.33973026    -0.05400
C1662       C  0.98640806  0.75638492  0.34580516     0.08800
C1663       C  0.95486412  0.71678478  0.35150656    -0.02800
C1664       C  0.96058026  0.68474081  0.35017877    -0.01000
C1665       C  0.99840071  0.69196229  0.34362704    -0.04600
C1666       C  0.03032495  0.73190748  0.33876852     0.02400
C1667       C  0.97950110  0.79052148  0.34502683     0.09200
C1668       C  0.91618096  0.70921677  0.35826351     0.35100
C1669       C  0.06973430  0.74053780  0.33300935     0.38600
C1670       C  0.96111071  0.80199772  0.32559884    -0.05000
C1671       C  0.95714743  0.83596831  0.32390509     0.02200
C1672       C  0.97260485  0.85917601  0.34122821    -0.04600
C1673       C  0.98854105  0.84614964  0.36148618    -0.00800
C1674       C  0.99184688  0.81177917  0.36341619    -0.03400
C1675       C  0.94654273  0.77890272  0.30731508     0.35900
C1676       C  0.00201259  0.86844381  0.38020372     0.39500
C1677       C  0.93537862  0.84586293  0.30513813     0.38600
C1678       C  0.00810306  0.79836002  0.38424809     0.35500
C1679       C  0.05670641  0.80483188  0.33405155     0.36200
C1680       C  0.92668294  0.64472072  0.35444437     0.39500
N1681       N  0.91725658  0.85325874  0.29049505    -0.38600
N1682       N  0.93483091  0.76010096  0.29291556    -0.40200
N1683       N  0.01227427  0.88614970  0.39516465    -0.37900
N1684       N  0.02101642  0.78772020  0.40092710    -0.40300
N1685       N  0.88539841  0.70341850  0.36353001    -0.40100
N1686       N  0.89914107  0.61312892  0.35797277    -0.37700
N1687       N  0.10141174  0.74812821  0.32836547    -0.38800
N1688       N  0.08242397  0.83755738  0.32961678    -0.40400
C1689       C  0.05386308  0.35100324  0.32943182    -0.05400
C1690       C  0.02223977  0.31828242  0.32192267     0.08800
C1691       C  0.98968386  0.32149338  0.31275786    -0.02800
C1692       C  0.98839806  0.35686004  0.31156009    -0.01000
C1693       C  0.01990578  0.38953606  0.31915839    -0.04600
C1694       C  0.05265568  0.38650803  0.32815806     0.02400
C1695       C  0.02312215  0.28031662  0.32356244     0.09200
C1696       C  0.95716565  0.28804722  0.30492861     0.35100
C1697       C  0.08397012  0.41888805  0.33745698     0.38600
C1698       C  0.01576438  0.25322449  0.34578825    -0.05000
C1699       C  0.01593005  0.21718294  0.34716408     0.02200
C1700       C  0.02161036  0.20687437  0.32607258    -0.04600
C1701       C  0.02862827  0.23419057  0.30376311    -0.00800
C1702       C  0.03046701  0.27110891  0.30269576    -0.03400
C1703       C  0.00755334  0.26224998  0.36728716     0.35900
C1704       C  0.03188281  0.22384428  0.28159919     0.39500
C1705       C  0.01095914  0.19122011  0.37048496     0.38600
C1706       C  0.03978603  0.29989469  0.28003819     0.35500
C1707       C  0.08726137  0.34765451  0.33885993     0.36200
C1708       C  0.95404129  0.35925933  0.30317724     0.39500
N1709       N  0.00701130  0.17051140  0.38906048    -0.38600
N1710       N  0.00096339  0.26927867  0.38448899    -0.40200
N1711       N  0.03423218  0.21591804  0.26374212    -0.37900
N1712       N  0.04730461  0.32322259  0.26213277    -0.40300
N1713       N  0.93136209  0.26139313  0.29857779    -0.40100
N1714       N  0.92656369  0.36117775  0.29670003    -0.37700
N1715       N  0.10887859  0.44440789  0.34514300    -0.38800
N1716       N  0.11360142  0.34446080  0.34647537    -0.40400
C1717       C  0.73740424  0.08614273  0.33352790    -0.05400
C1718       C  0.73921946  0.05404504  0.32796670     0.08800
C1719       C  0.70461829  0.02062659  0.32353900    -0.02800
C1720       C  0.66810749  0.01875881  0.32525936    -0.01000
C1721       C  0.66609759  0.05126212  0.33025285    -0.04600
C1722       C  0.70102928  0.08502699  0.33445795     0.02400
C1723       C  0.77739672  0.05443560  0.32785041     0.09200
C1724       C  0.70670933  0.98808408  0.31720828     0.35100
C1725       C  0.69998695  0.11901935  0.33930394     0.38600
C1726       C  0.78586996  0.03248290  0.34776185    -0.05000
C1727       C  0.82093424  0.03103955  0.34736363     0.02200
C1728       C  0.84842874  0.05264822  0.32726917    -0.04600
C1729       C  0.84020484  0.07544514  0.30756080    -0.00800
C1730       C  0.80453974  0.07586547  0.30775296    -0.03400
C1731       C  0.75813825  0.01110410  0.36859676     0.35900
C1732       C  0.86872834  0.09940421  0.28729819     0.39500
C1733       C  0.82762211  0.00565714  0.36720546     0.38600
C1734       C  0.79542186  0.09797918  0.28718023     0.35500
C1735       C  0.77316580  0.12017927  0.33836940     0.36200
C1736       C  0.63246748  0.98229234  0.32319145     0.39500
N1737       N  0.83253512  0.98506415  0.38301956    -0.38600
N1738       N  0.73585055  0.99418825  0.38512391    -0.40200
N1739       N  0.89121344  0.11891485  0.27103148    -0.37900
N1740       N  0.78795778  0.11548812  0.27079547    -0.40300
N1741       N  0.70849579  0.96226391  0.31206310    -0.40100
N1742       N  0.60429076  0.95282882  0.32179585    -0.37700
N1743       N  0.69975264  0.14642144  0.34320639    -0.38800
N1744       N  0.80196026  0.14709321  0.34218311    -0.40400
C1745       C  0.20838811  0.03723676  0.31464101    -0.05400
C1746       C  0.21783830  0.01383338  0.33312127     0.08800
C1747       C  0.19042202  0.98881138  0.35287280    -0.02800
C1748       C  0.15413530  0.98788041  0.35432228    -0.01000
C1749       C  0.14524749  0.01219084  0.33610362    -0.04600
C1750       C  0.17245846  0.03668240  0.31620223     0.02400
C1751       C  0.25794364  0.01809864  0.33232507     0.09200
C1752       C  0.19956318  0.96402721  0.37166765     0.35100
C1753       C  0.16408958  0.06256089  0.29767312     0.38600
C1754       C  0.28822943  0.04549287  0.34382806    -0.05000
C1755       C  0.32705468  0.05271912  0.34149082     0.02200
C1756       C  0.33643632  0.03272585  0.32721086    -0.04600
C1757       C  0.30534708  0.00495374  0.31572458    -0.00800
C1758       C  0.26640116  0.99732175  0.31867565    -0.03400
C1759       C  0.27916661  0.06657044  0.35803156     0.35900
C1760       C  0.31253964  0.98335014  0.30104323     0.39500
C1761       C  0.35706606  0.08173656  0.35353865     0.38600
C1762       C  0.23456362  0.96746571  0.30797207     0.35500
C1763       C  0.23598605  0.06245095  0.29408383     0.36200
C1764       C  0.12554275  0.96111071  0.37418456     0.39500
N1765       N  0.38049954  0.10489766  0.36336270    -0.38600
N1766       N  0.27149811  0.08307348  0.36933359    -0.40200
N1767       N  0.31747497  0.96593596  0.28906775    -0.37900
N1768       N  0.20899868  0.94341892  0.29968076    -0.40300
N1769       N  0.20664512  0.94412034  0.38672100    -0.40100
N1770       N  0.10272644  0.93956374  0.39000377    -0.37700
N1771       N  0.15715674  0.08311046  0.28302106    -0.38800
N1772       N  0.25778169  0.08249765  0.27757490    -0.40400
C1773       C  0.99386134  0.97187058  0.19802163    -0.05400
C1774       C  0.99471025  0.00198888  0.17924173     0.08800
C1775       C  0.99036832  0.03289261  0.18463674    -0.02800
C1776       C  0.98466041  0.03338817  0.20866177    -0.01000
C1777       C  0.98432397  0.00347770  0.22765012    -0.04600
C1778       C  0.98876533  0.97255547  0.22205161     0.02400
C1779       C  0.00015005  0.00121217  0.15369576     0.09200
C1780       C  0.99325232  0.06509931  0.16541501     0.35100
C1781       C  0.98760283  0.94085457  0.24094936     0.38600
C1782       C  0.96719585  0.98458837  0.14010345    -0.05000
C1783       C  0.97238087  0.98722114  0.11548201     0.02200
C1784       C  0.01049663  0.00618691  0.10434760    -0.04600
C1785       C  0.04339558  0.02033226  0.11830363    -0.00800
C1786       C  0.03822037  0.01767730  0.14293187    -0.03400
C1787       C  0.92796514  0.96519720  0.15147989     0.35900
C1788       C  0.08265528  0.03847223  0.10712645     0.39500
C1789       C  0.93861900  0.97187236  0.10132041     0.38600
C1790       C  0.07200841  0.03233905  0.15719409     0.35500
C1791       C  0.99887856  0.94043012  0.19251489     0.36200
C1792       C  0.98077590  0.06575627  0.21366904     0.39500
N1793       N  0.91179853  0.95966549  0.08989530    -0.38600
N1794       N  0.89669663  0.94956642  0.16067703    -0.40200
N1795       N  0.11392676  0.05281765  0.09817705    -0.37900
N1796       N  0.09881421  0.04369311  0.16872208    -0.40300
N1797       N  0.99591563  0.09105434  0.15015665    -0.40100
N1798       N  0.97764476  0.09175930  0.21734123    -0.37700
N1799       N  0.98698662  0.91551608  0.25585256    -0.38800
N1800       N  0.00310330  0.91555300  0.18801354    -0.40400
loop_ 
_geom_bond_atom_site_label_1 
_geom_bond_atom_site_label_2 
_geom_bond_distance 
_geom_bond_site_symmetry_2 
_ccdc_geom_bond_type 
Zr1           O2   2.440       .  S
Zr1           O3   2.423       .  S
Zr1           O4   2.455       .  S
Zr1           O7   2.422       .  S
Zr1           O9   2.379   1_655  S
Zr1          O10   2.392       .  S
Zr1          O11   2.402       .  S
Zr1          O12   2.402       .  S
O2           H58   0.990       .  S
O2           H66   0.989       .  S
O3           C23   1.282   1_655  A
O4           C25   1.287   1_655  A
O5          Zr15   2.447       .  S
O5           C24   1.286       .  A
O6          Zr14   2.420       .  S
O6           C25   1.282       .  A
O7           C24   1.283       .  A
O8          Zr16   2.438       .  S
O8           C23   1.285       .  A
O9          Zr14   2.402       .  S
O9          Zr16   2.377       .  S
O10         Zr15   2.401       .  S
O10         Zr16   2.376   1_655  S
O10          H45   0.966       .  S
O11         Zr14   2.403   1_655  S
O11         Zr31   2.392   1_545  S
O11          H48   0.967       .  S
O12         Zr15   2.391       .  S
O12         Zr31   2.385   1_545  S
Zr13         O38   2.443       .  S
Zr13         O32   2.439   1_455  S
Zr13         O40   2.427   1_565  S
Zr13         O28   2.437   1_565  S
Zr13         O19   2.402   1_565  S
Zr13         O20   2.412   1_565  S
Zr13         O21   2.374       .  S
Zr13         O22   2.385   1_455  S
Zr14         O33   2.436   1_545  S
Zr14         O26   2.434       .  S
Zr14         O27   2.431       .  S
Zr14         O20   2.403       .  S
Zr14         O21   2.388   1_545  S
Zr15         O17   2.436   1_545  S
Zr15         O39   2.435       .  S
Zr15         O41   2.458       .  S
Zr15         O19   2.393   1_655  S
Zr15         O22   2.394   1_545  S
Zr16         O42   2.433       .  S
Zr16         O43   2.435       .  S
Zr16         O18   2.437       .  S
Zr16         O19   2.398       .  S
Zr16         O20   2.400       .  S
O17          H54   0.990       .  S
O18          H49   0.990       .  S
O18          H63   0.989       .  S
O20          H46   0.963       .  S
O21         Zr31   2.380   1_455  S
O22         Zr31   2.391       .  S
O22          H47   0.966       .  S
C23        C1700   1.499       .  S
C24        C1728   1.487       .  S
C25        C1637   1.486       .  S
O26          H62   0.989       .  S
O27          C29   1.283       .  A
O28          C29   1.283       .  A
C29        C1749   1.485       .  S
O30         Zr31   2.434       .  S
O30          H59   0.990       .  S
Zr31         O34   2.435       .  S
Zr31         O35   2.439       .  S
Zr31         O36   2.403       .  S
O32          C37   1.283       .  A
O33          H50   0.990   1_565  S
O33          H65   0.990       .  S
O34          H51   0.990       .  S
O35          H55   0.990       .  S
O35          H64   0.989       .  S
O36          C37   1.277       .  A
C37        C1672   1.476       .  S
O38          H57   0.990   1_565  S
O38          H61   0.991       .  S
O39          H53   0.990       .  S
O39          H60   0.989       .  S
O40          C44   1.283   1_455  A
O41          C44   1.289       .  A
O42          H52   0.990       .  S
O43          H56   0.990       .  S
C44        C1777   1.500       .  S
Zr67         O68   2.440       .  S
Zr67         O69   2.432       .  S
Zr67         O70   2.437   1_655  S
Zr67         O73   2.434       .  S
Zr67         O75   2.387   1_655  S
Zr67         O76   2.382       .  S
Zr67         O77   2.408   1_655  S
Zr67         O78   2.405       .  S
O68         H124   0.990       .  S
O68         H132   0.990       .  S
O69          C89   1.284   1_655  A
O70          C91   1.284       .  A
O71         Zr81   2.431       .  S
O71          C90   1.283       .  A
O72         Zr80   2.432       .  S
O72          C91   1.284       .  A
O73          C90   1.285       .  A
O74         Zr82   2.432       .  S
O74          C89   1.284       .  A
O75         Zr80   2.397       .  S
O75         Zr82   2.379       .  S
O76         Zr81   2.387       .  S
O76         Zr82   2.376   1_655  S
O76         H111   0.967       .  S
O77         Zr80   2.405       .  S
O77         Zr97   2.386   1_455  S
O77         H114   0.965   1_455  S
O78         Zr81   2.386       .  S
O78         Zr97   2.395       .  S
Zr79        O104   2.440       .  S
Zr79         O98   2.451       .  S
Zr79        O106   2.437       .  S
Zr79         O94   2.438       .  S
Zr79         O85   2.402       .  S
Zr79         O86   2.411       .  S
Zr79         O87   2.376       .  S
Zr79         O88   2.385   1_455  S
Zr80         O99   2.438       .  S
Zr80         O92   2.434       .  S
Zr80         O93   2.447       .  S
Zr80         O86   2.395       .  S
Zr80         O87   2.391       .  S
Zr81         O83   2.434       .  S
Zr81        O105   2.437       .  S
Zr81        O107   2.408       .  S
Zr81         O85   2.387   1_655  S
Zr81         O88   2.393       .  S
Zr82        O108   2.436       .  S
Zr82        O109   2.435       .  S
Zr82         O84   2.435       .  S
Zr82         O85   2.389       .  S
Zr82         O86   2.399       .  S
O83         H120   0.990       .  S
O84         H115   0.990       .  S
O84         H129   0.990       .  S
O86         H112   0.967       .  S
O87         Zr97   2.377   1_455  S
O88         Zr97   2.378       .  S
O88         H113   0.966       .  S
C89        C1665   1.497   1_455  S
C90        C1553   1.488       .  S
C91        C1532   1.481       .  S
O92         H128   0.990       .  S
O93          C95   1.288       .  A
O94          C95   1.284       .  A
C95        C1581   1.507       .  S
O96         Zr97   2.437       .  S
O96         H125   0.990       .  S
Zr97        O100   2.435       .  S
Zr97        O101   2.437       .  S
Zr97        O102   2.409       .  S
O98         C103   1.286       .  A
O99         H116   0.990       .  S
O99         H131   0.989       .  S
O100        H117   0.990       .  S
O101        H121   0.990       .  S
O101        H130   0.990       .  S
O102        C103   1.279   1_655  A
C103       C1693   1.481       .  S
O104        H123   0.990       .  S
O104        H127   0.989       .  S
O105        H119   0.990       .  S
O105        H126   0.989       .  S
O106        C110   1.285   1_455  A
O107        C110   1.279       .  A
O108        H118   0.990   1_455  S
O109        H122   0.990       .  S
C110       C1616   1.475       .  S
Zr133       O134   2.441       .  S
Zr133       O135   2.425       .  S
Zr133       O136   2.460       .  S
Zr133       O139   2.438       .  S
Zr133       O141   2.386       .  S
Zr133       O142   2.389       .  S
Zr133       O143   2.401       .  S
Zr133       O144   2.399       .  S
O134        H190   0.990       .  S
O134        H198   0.990       .  S
O135        C155   1.282       .  A
O136        C157   1.288       .  A
O137       Zr147   2.456       .  S
O137        C156   1.289       .  A
O138       Zr146   2.417       .  S
O138        C157   1.281       .  A
O139        C156   1.286       .  A
O140       Zr148   2.392       .  S
O140        C155   1.276       .  A
O141       Zr146   2.390       .  S
O141       Zr148   2.379       .  S
O142       Zr147   2.386       .  S
O142       Zr148   2.383       .  S
O142        H177   0.965       .  S
O143       Zr146   2.402       .  S
O143       Zr163   2.388   1_545  S
O143        H180   0.966       .  S
O144       Zr147   2.389       .  S
O144       Zr163   2.388   1_545  S
Zr145       O170   2.442       .  S
Zr145       O164   2.428   1_545  S
Zr145       O172   2.431       .  S
Zr145       O160   2.441       .  S
Zr145       O151   2.399       .  S
Zr145       O152   2.401       .  S
Zr145       O153   2.375       .  S
Zr145       O154   2.385   1_545  S
Zr146       O165   2.437       .  S
Zr146       O158   2.434       .  S
Zr146       O159   2.424       .  S
Zr146       O152   2.397       .  S
Zr146       O153   2.393       .  S
Zr147       O149   2.432   1_545  S
Zr147       O171   2.439       .  S
Zr147       O173   2.428       .  S
Zr147       O151   2.397       .  S
Zr147       O154   2.398   1_545  S
Zr148       O174   2.435       .  S
Zr148       O175   2.436       .  S
Zr148       O150   2.438       .  S
Zr148       O151   2.384       .  S
Zr148       O152   2.389       .  S
O149        H186   0.989       .  S
O150        H181   0.989       .  S
O150        H195   0.990       .  S
O152        H178   0.964       .  S
O153       Zr163   2.378   1_545  S
O154       Zr163   2.383       .  S
O154        H179   0.966       .  S
C155       C1476   1.463       .  S
C156       C1756   1.516       .  S
C157       C1413   1.484       .  S
O158        H194   0.990       .  S
O159        C161   1.282       .  A
O160        C161   1.284       .  A
C161       C1721   1.487       .  S
O162       Zr163   2.436       .  S
O162        H191   0.990       .  S
Zr163       O166   2.434       .  S
Zr163       O167   2.440       .  S
Zr163       O168   2.412       .  S
O164        C169   1.283       .  A
O165        H182   0.990       .  S
O165        H197   0.990   1_545  S
O166        H183   0.990       .  S
O167        H187   0.990       .  S
O167        H196   0.990       .  S
O168        C169   1.280       .  A
C169       C1448   1.486       .  S
O170        H189   0.990       .  S
O170        H193   0.991       .  S
O171        H185   0.990       .  S
O171        H192   0.990       .  S
O172        C176   1.285       .  A
O173        C176   1.284       .  A
O174        H184   0.990       .  S
O175        H188   0.990       .  S
C176       C1497   1.485       .  S
Zr199       O200   2.441       .  S
Zr199       O201   2.437       .  S
Zr199       O202   2.462       .  S
Zr199       O205   2.446       .  S
Zr199       O207   2.380       .  S
Zr199       O208   2.381       .  S
Zr199       O209   2.408       .  S
Zr199       O210   2.407       .  S
O200        H256   0.990       .  S
O200        H264   0.990       .  S
O201        C221   1.285       .  A
O202        C223   1.288       .  A
O203       Zr213   2.422       .  S
O203        C222   1.282       .  A
O204       Zr212   2.404       .  S
O204        C223   1.279       .  A
O205        C222   1.288       .  A
O206       Zr214   2.426       .  S
O206        C221   1.282       .  A
O207       Zr212   2.396       .  S
O207       Zr214   2.381       .  S
O208       Zr213   2.384       .  S
O208       Zr214   2.377       .  S
O208        H243   0.966       .  S
O209       Zr212   2.396       .  S
O209       Zr229   2.398       .  S
O209        H246   0.965       .  S
O210       Zr213   2.393       .  S
O210       Zr229   2.390       .  S
Zr211       O236   2.439       .  S
Zr211       O230   2.427       .  S
Zr211       O238   2.449       .  S
Zr211       O226   2.453       .  S
Zr211       O217   2.398       .  S
Zr211       O218   2.405       .  S
Zr211       O219   2.382       .  S
Zr211       O220   2.388       .  S
Zr212       O231   2.437       .  S
Zr212       O224   2.428       .  S
Zr212       O225   2.422       .  S
Zr212       O218   2.397       .  S
Zr212       O219   2.384       .  S
Zr213       O215   2.433       .  S
Zr213       O237   2.436       .  S
Zr213       O239   2.416       .  S
Zr213       O217   2.390       .  S
Zr213       O220   2.391       .  S
Zr214       O240   2.434       .  S
Zr214       O241   2.435       .  S
Zr214       O216   2.435       .  S
Zr214       O217   2.389       .  S
Zr214       O218   2.397       .  S
O215        H252   0.990       .  S
O216        H247   0.990       .  S
O216        H261   0.990       .  S
O218        H244   0.966       .  S
O219       Zr229   2.380       .  S
O220       Zr229   2.380       .  S
O220        H245   0.965       .  S
C221       C1441   1.494       .  S
C222       C1588   1.487       .  S
C223       C1364   1.483       .  S
O224        H260   0.989       .  S
O225        C227   1.282       .  A
O226        C227   1.287       .  A
C227       C1560   1.491       .  S
O228       Zr229   2.439       .  S
O228        H257   0.990       .  S
Zr229       O232   2.433       .  S
Zr229       O233   2.442       .  S
Zr229       O234   2.411       .  S
O230        C235   1.283       .  A
O231        H248   0.990       .  S
O231        H263   0.990       .  S
O232        H249   0.989       .  S
O233        H253   0.990       .  S
O233        H262   0.990       .  S
O234        C235   1.280       .  A
C235       C1469   1.477       .  S
O236        H255   0.990       .  S
O236        H259   0.990       .  S
O237        H251   0.990       .  S
O237        H258   0.990       .  S
O238        C242   1.288       .  A
O239        C242   1.282       .  A
O240        H250   0.990       .  S
O241        H254   0.990       .  S
C242       C1385   1.491       .  S
Zr265       O266   2.439       .  S
Zr265       O267   2.464   1_455  S
Zr265       O268   2.466       .  S
Zr265       O271   2.436       .  S
Zr265       O273   2.384   1_465  S
Zr265       O274   2.382   1_564  S
Zr265       O275   2.406   1_565  S
Zr265       O276   2.417   1_564  S
O266        H322   0.990       .  S
O266        H330   0.989       .  S
O267        C287   1.289       .  A
O268        C289   1.290   1_565  A
O269       Zr279   2.425   1_565  S
O269        C288   1.283       .  A
O270       Zr278   2.415       .  S
O270        C289   1.280       .  A
O271        C288   1.285   1_554  A
O272       Zr280   2.432   1_565  S
O272        C287   1.283   1_556  A
O273       Zr278   2.398   1_655  S
O273       Zr280   2.385   1_554  S
O274       Zr279   2.388       .  S
O274       Zr280   2.368   1_455  S
O274        H309   0.966   1_445  S
O275       Zr278   2.394       .  S
O275       Zr295   2.391       .  S
O275        H312   0.966       .  S
O276       Zr279   2.399       .  S
O276       Zr295   2.401   1_556  S
Zr277       O302   2.438       .  S
Zr277       O296   2.435       .  S
Zr277       O304   2.432       .  S
Zr277       O292   2.428       .  S
Zr277       O283   2.398       .  S
Zr277       O284   2.409       .  S
Zr277       O285   2.378   1_556  S
Zr277       O286   2.380       .  S
Zr278       O297   2.437       .  S
Zr278       O290   2.434   1_455  S
Zr278       O291   2.419       .  S
Zr278       O284   2.396   1_554  S
Zr278       O285   2.391       .  S
Zr279       O281   2.436       .  S
Zr279       O303   2.438       .  S
Zr279       O305   2.437       .  S
Zr279       O283   2.390       .  S
Zr279       O286   2.387       .  S
Zr280       O306   2.436       .  S
Zr280       O307   2.435       .  S
Zr280       O282   2.437       .  S
Zr280       O283   2.398   1_655  S
Zr280       O284   2.399   1_655  S
O281        H318   0.990       .  S
O282        H313   0.990       .  S
O282        H327   0.990   1_556  S
O284        H310   0.965       .  S
O285       Zr295   2.376       .  S
O286       Zr295   2.374   1_556  S
O286        H311   0.967       .  S
C287       C1224   1.492       .  S
C288       C1273   1.504       .  S
C289       C1784   1.484       .  S
O290        H326   0.990       .  S
O291        C293   1.282   1_554  A
O292        C293   1.283       .  A
C293       C1301   1.476   1_556  S
O294       Zr295   2.435       .  S
O294        H323   0.990       .  S
Zr295       O298   2.436       .  S
Zr295       O299   2.438   1_554  S
Zr295       O300   2.437   1_554  S
O296        C301   1.284       .  A
O297        H314   0.990       .  S
O297        H329   0.990       .  S
O298        H315   0.990       .  S
O299        H319   0.990       .  S
O299        H328   0.989       .  S
O300        C301   1.286       .  A
C301       C1245   1.494       .  S
O302        H321   0.989       .  S
O302        H325   0.990       .  S
O303        H317   0.990   1_545  S
O303        H324   0.990   1_545  S
O304        C308   1.284       .  A
O305        C308   1.285       .  A
O306        H316   0.990       .  S
O307        H320   0.990       .  S
C308       C1329   1.484       .  S
Zr331       O332   2.441   1_455  S
Zr331       O333   2.449       .  S
Zr331       O334   2.447       .  S
Zr331       O337   2.439   1_455  S
Zr331       O339   2.385       .  S
Zr331       O340   2.377   1_556  S
Zr331       O341   2.413       .  S
Zr331       O342   2.403   1_455  S
O332        H388   0.990   1_655  S
O332        H396   0.990       .  S
O333        C353   1.286       .  A
O334        C355   1.285       .  A
O335       Zr345   2.445       .  S
O335        C354   1.288   1_554  A
O336       Zr344   2.413       .  S
O336        C355   1.280       .  A
O337        C354   1.285       .  A
O338       Zr346   2.412       .  S
O338        C353   1.279   1_554  A
O339       Zr344   2.398       .  S
O339       Zr346   2.381   1_556  S
O340       Zr345   2.379   1_455  S
O340       Zr346   2.380       .  S
O340        H375   0.964       .  S
O341       Zr344   2.404       .  S
O341       Zr361   2.395       .  S
O341        H378   0.964       .  S
O342       Zr345   2.384   1_556  S
O342       Zr361   2.395   1_655  S
Zr343       O368   2.441       .  S
Zr343       O362   2.448       .  S
Zr343       O370   2.444       .  S
Zr343       O358   2.445       .  S
Zr343       O349   2.407       .  S
Zr343       O350   2.409       .  S
Zr343       O351   2.374   1_554  S
Zr343       O352   2.384       .  S
Zr344       O363   2.433       .  S
Zr344       O356   2.434       .  S
Zr344       O357   2.431       .  S
Zr344       O350   2.394   1_556  S
Zr344       O351   2.388       .  S
Zr345       O347   2.431       .  S
Zr345       O369   2.438       .  S
Zr345       O371   2.407   1_655  S
Zr345       O349   2.401   1_655  S
Zr345       O352   2.401   1_655  S
Zr346       O372   2.436       .  S
Zr346       O373   2.434       .  S
Zr346       O348   2.438       .  S
Zr346       O349   2.393       .  S
Zr346       O350   2.391       .  S
O347        H384   0.990       .  S
O348        H379   0.990       .  S
O348        H393   0.990   1_554  S
O350        H376   0.965       .  S
O351       Zr361   2.376       .  S
O352       Zr361   2.375   1_554  S
O352        H377   0.966       .  S
C353       C1308   1.477       .  S
C354       C1140   1.504       .  S
C355       C1189   1.474       .  S
O356        H392   0.990       .  S
O357        C359   1.284       .  A
O358        C359   1.287   1_554  A
C359       C1168   1.493       .  S
O360       Zr361   2.438   1_655  S
O360        H389   0.990       .  S
Zr361       O364   2.436       .  S
Zr361       O365   2.442   1_455  S
Zr361       O366   2.423       .  S
O362        C367   1.286   1_554  A
O363        H380   0.990       .  S
O363        H395   0.989       .  S
O364        H381   0.990       .  S
O365        H385   0.990       .  S
O365        H394   0.990       .  S
O366        C367   1.282       .  A
C367       C1280   1.502       .  S
O368        H387   0.990       .  S
O368        H391   0.989       .  S
O369        H383   0.990   1_655  S
O369        H390   0.990       .  S
O370        C374   1.285       .  A
O371        C374   1.280       .  A
O372        H382   0.990       .  S
O373        H386   0.990       .  S
C374       C1609   1.477       .  S
Zr397       O398   2.441   1_545  S
Zr397       O399   2.442   1_545  S
Zr397       O400   2.450       .  S
Zr397       O403   2.439   1_545  S
Zr397       O405   2.387       .  S
Zr397       O406   2.381   1_546  S
Zr397       O407   2.414       .  S
Zr397       O408   2.403       .  S
O398        H454   0.990       .  S
O398        H462   0.988       .  S
O399        C419   1.284       .  A
O400        C421   1.287       .  A
O401       Zr411   2.434   1_565  S
O401        C420   1.285   1_554  A
O402       Zr410   2.409       .  S
O402        C421   1.281       .  A
O403        C420   1.285       .  A
O404       Zr412   2.415   1_565  S
O404        C419   1.280   1_554  A
O405       Zr410   2.408       .  S
O405       Zr412   2.380   1_556  S
O406       Zr411   2.383   1_565  S
O406       Zr412   2.380   1_565  S
O406        H441   0.966       .  S
O407       Zr410   2.411       .  S
O407       Zr427   2.383       .  S
O407        H444   0.966       .  S
O408       Zr411   2.385   1_556  S
O408       Zr427   2.388       .  S
Zr409       O434   2.441       .  S
Zr409       O428   2.439       .  S
Zr409       O436   2.422       .  S
Zr409       O424   2.443       .  S
Zr409       O415   2.404       .  S
Zr409       O416   2.403       .  S
Zr409       O417   2.373   1_554  S
Zr409       O418   2.392       .  S
Zr410       O429   2.436       .  S
Zr410       O422   2.434       .  S
Zr410       O423   2.445       .  S
Zr410       O416   2.386   1_556  S
Zr410       O417   2.388       .  S
Zr411       O413   2.435       .  S
Zr411       O435   2.440   1_545  S
Zr411       O437   2.410       .  S
Zr411       O415   2.394       .  S
Zr411       O418   2.396       .  S
Zr412       O438   2.435   1_545  S
Zr412       O439   2.437       .  S
Zr412       O414   2.436       .  S
Zr412       O415   2.391       .  S
Zr412       O416   2.392       .  S
O413        H450   0.990   1_545  S
O414        H445   0.990       .  S
O414        H459   0.990       .  S
O416        H442   0.966       .  S
O417       Zr427   2.385       .  S
O418       Zr427   2.379   1_554  S
O418        H443   0.967       .  S
C419       C1049   1.483       .  S
C420       C1161   1.491       .  S
C421       C1105   1.480       .  S
O422        H458   0.990       .  S
O423        C425   1.286       .  A
O424        C425   1.285   1_554  A
C425       C1133   1.495       .  S
O426       Zr427   2.437       .  S
O426        H455   0.990       .  S
Zr427       O430   2.436       .  S
Zr427       O431   2.440       .  S
Zr427       O432   2.399       .  S
O428        C433   1.283   1_554  A
O429        H446   0.990       .  S
O429        H461   0.990       .  S
O430        H447   0.990       .  S
O431        H451   0.990       .  S
O431        H460   0.990       .  S
O432        C433   1.276       .  A
C433       C1077   1.472       .  S
O434        H453   0.990       .  S
O434        H457   0.990       .  S
O435        H449   0.990       .  S
O435        H456   0.990       .  S
O436        C440   1.281       .  A
O437        C440   1.281       .  A
O438        H448   0.991       .  S
O439        H452   0.990       .  S
C440       C1504   1.469       .  S
Zr463       O464   2.434       .  S
Zr463       O465   2.435       .  S
Zr463       O466   2.441       .  S
Zr463       O469   2.438       .  S
Zr463       O471   2.384       .  S
Zr463       O472   2.381   1_556  S
Zr463       O473   2.407       .  S
Zr463       O474   2.399       .  S
O464        H520   0.989       .  S
O464        H528   0.989       .  S
O465        C485   1.286       .  A
O466        C487   1.286       .  A
O467       Zr477   2.435       .  S
O467        C486   1.283   1_554  A
O468       Zr476   2.441       .  S
O468        C487   1.287       .  A
O469        C486   1.285       .  A
O470       Zr478   2.411   1_556  S
O470        C485   1.280       .  A
O471       Zr476   2.395       .  S
O471       Zr478   2.376   1_556  S
O472       Zr477   2.384       .  S
O472       Zr478   2.381       .  S
O472        H507   0.965       .  S
O473       Zr476   2.395       .  S
O473       Zr493   2.390       .  S
O473        H510   0.966       .  S
O474       Zr477   2.383   1_556  S
O474       Zr493   2.394       .  S
Zr475       O500   2.443       .  S
Zr475       O494   2.415       .  S
Zr475       O502   2.436       .  S
Zr475       O490   2.433       .  S
Zr475       O481   2.392       .  S
Zr475       O482   2.402       .  S
Zr475       O483   2.381   1_554  S
Zr475       O484   2.389       .  S
Zr476       O495   2.437       .  S
Zr476       O488   2.435       .  S
Zr476       O489   2.443       .  S
Zr476       O482   2.399   1_556  S
Zr476       O483   2.390       .  S
Zr477       O479   2.434       .  S
Zr477       O501   2.433       .  S
Zr477       O503   2.411       .  S
Zr477       O481   2.398       .  S
Zr477       O484   2.395       .  S
Zr478       O504   2.435       .  S
Zr478       O505   2.436       .  S
Zr478       O480   2.437       .  S
Zr478       O481   2.387       .  S
Zr478       O482   2.389       .  S
O479        H516   0.990       .  S
O480        H511   0.990       .  S
O480        H525   0.990   1_554  S
O482        H508   0.966       .  S
O483       Zr493   2.374       .  S
O484       Zr493   2.386   1_554  S
O484        H509   0.966       .  S
C485       C1084   1.490       .  S
C486       C1252   1.491       .  S
C487       C1021   1.513       .  S
O488        H524   0.990       .  S
O489        C491   1.286       .  A
O490        C491   1.284   1_554  A
C491       C1217   1.489       .  S
O492       Zr493   2.436       .  S
O492        H521   0.990       .  S
Zr493       O496   2.437       .  S
Zr493       O497   2.434       .  S
Zr493       O498   2.423       .  S
O494        C499   1.279   1_554  A
O495        H512   0.990       .  S
O495        H527   0.990       .  S
O496        H513   0.990       .  S
O497        H517   0.990       .  S
O497        H526   0.989       .  S
O498        C499   1.283       .  A
C499       C1056   1.482   1_556  S
O500        H519   0.991       .  S
O500        H523   0.990       .  S
O501        H515   0.990       .  S
O501        H522   0.989       .  S
O502        C506   1.283       .  A
O503        C506   1.279       .  A
O504        H514   0.990       .  S
O505        H518   0.990       .  S
C506       C1392   1.476       .  S
Zr529       O530   2.442   1_455  S
Zr529       O531   2.439   1_455  S
Zr529       O532   2.443       .  S
Zr529       O535   2.433   1_455  S
Zr529       O537   2.383       .  S
Zr529       O538   2.380       .  S
Zr529       O539   2.412       .  S
Zr529       O540   2.405       .  S
O530        H586   0.990       .  S
O530        H594   0.989   1_655  S
O531        C551   1.283       .  A
O532        C553   1.285       .  A
O533       Zr543   2.413   1_655  S
O533        C552   1.281       .  A
O534       Zr542   2.447       .  S
O534        C553   1.286       .  A
O535        C552   1.285       .  A
O536       Zr544   2.418       .  S
O536        C551   1.281   1_455  A
O537       Zr542   2.401       .  S
O537       Zr544   2.382       .  S
O538       Zr543   2.394       .  S
O538       Zr544   2.374       .  S
O538        H573   0.965       .  S
O539       Zr542   2.408       .  S
O539       Zr559   2.394       .  S
O539        H576   0.966       .  S
O540       Zr543   2.394       .  S
O540       Zr559   2.393       .  S
Zr541       O566   2.440       .  S
Zr541       O560   2.432       .  S
Zr541       O568   2.450       .  S
Zr541       O556   2.440       .  S
Zr541       O547   2.393       .  S
Zr541       O548   2.410       .  S
Zr541       O549   2.388       .  S
Zr541       O550   2.384       .  S
Zr542       O561   2.439       .  S
Zr542       O554   2.431       .  S
Zr542       O555   2.458       .  S
Zr542       O548   2.402       .  S
Zr542       O549   2.396       .  S
Zr543       O545   2.434       .  S
Zr543       O567   2.435       .  S
Zr543       O569   2.432       .  S
Zr543       O547   2.385       .  S
Zr543       O550   2.391       .  S
Zr544       O570   2.434       .  S
Zr544       O571   2.434       .  S
Zr544       O546   2.433       .  S
Zr544       O547   2.388       .  S
Zr544       O548   2.391       .  S
O545        H582   0.990       .  S
O546        H577   0.990   1_545  S
O546        H591   0.989       .  S
O548        H574   0.966       .  S
O549       Zr559   2.380       .  S
O550       Zr559   2.384       .  S
O550        H575   0.965       .  S
C551        C909   1.488   1_545  S
C552        C965   1.480       .  S
C553       C1644   1.492       .  S
O554        H590   0.990       .  S
O555        C557   1.290       .  A
O556        C557   1.284       .  A
C557        C993   1.507       .  S
O558       Zr559   2.435       .  S
O558        H587   0.990       .  S
Zr559       O562   2.435       .  S
Zr559       O563   2.439       .  S
Zr559       O564   2.414       .  S
O560        C565   1.282       .  A
O561        H578   0.991       .  S
O561        H593   0.990       .  S
O562        H579   0.990       .  S
O563        H583   0.990       .  S
O563        H592   0.990       .  S
O564        C565   1.279       .  A
C565        C944   1.472       .  S
O566        H585   0.990       .  S
O566        H589   0.989       .  S
O567        H581   0.990       .  S
O567        H588   0.990       .  S
O568        C572   1.287       .  A
O569        C572   1.283       .  A
O570        H580   0.990       .  S
O571        H584   0.990       .  S
C572       C1336   1.487       .  S
Zr595       O596   2.439       .  S
Zr595       O597   2.429   1_455  S
Zr595       O598   2.425       .  S
Zr595       O601   2.436       .  S
Zr595       O603   2.383       .  S
Zr595       O604   2.377       .  S
Zr595       O605   2.403       .  S
Zr595       O606   2.390       .  S
O596        H652   0.990       .  S
O596        H660   0.990       .  S
O597        C617   1.283       .  A
O598        C619   1.283       .  A
O599       Zr609   2.449       .  S
O599        C618   1.287   1_455  A
O600       Zr608   2.429       .  S
O600        C619   1.284       .  A
O601        C618   1.286   1_455  A
O602       Zr610   2.429       .  S
O602        C617   1.282   1_455  A
O603       Zr608   2.401       .  S
O603       Zr610   2.369       .  S
O604       Zr609   2.385       .  S
O604       Zr610   2.382       .  S
O604        H639   0.964       .  S
O605       Zr608   2.404       .  S
O605       Zr625   2.396       .  S
O605        H642   0.966       .  S
O606       Zr609   2.388       .  S
O606       Zr625   2.387       .  S
Zr607       O632   2.444       .  S
Zr607       O626   2.441       .  S
Zr607       O634   2.426       .  S
Zr607       O622   2.434       .  S
Zr607       O613   2.400       .  S
Zr607       O614   2.415       .  S
Zr607       O615   2.376       .  S
Zr607       O616   2.386       .  S
Zr608       O627   2.431       .  S
Zr608       O620   2.434       .  S
Zr608       O621   2.434       .  S
Zr608       O614   2.400       .  S
Zr608       O615   2.392       .  S
Zr609       O611   2.434       .  S
Zr609       O633   2.434       .  S
Zr609       O635   2.424       .  S
Zr609       O613   2.387       .  S
Zr609       O616   2.398       .  S
Zr610       O636   2.434       .  S
Zr610       O637   2.437       .  S
Zr610       O612   2.437       .  S
Zr610       O613   2.391       .  S
Zr610       O614   2.398       .  S
O611        H648   0.990       .  S
O612        H643   0.990       .  S
O612        H657   0.990       .  S
O614        H640   0.965       .  S
O615       Zr625   2.381       .  S
O616       Zr625   2.388       .  S
O616        H641   0.966       .  S
C617        C797   1.498       .  S
C618        C853   1.498       .  S
C619       C1525   1.486       .  S
O620        H656   0.990       .  S
O621        C623   1.284       .  A
O622        C623   1.282       .  A
C623        C881   1.487       .  S
O624       Zr625   2.435       .  S
O624        H653   0.990       .  S
Zr625       O628   2.436       .  S
Zr625       O629   2.435       .  S
Zr625       O630   2.409       .  S
O626        C631   1.283       .  A
O627        H644   0.990       .  S
O627        H659   0.989       .  S
O628        H645   0.990       .  S
O629        H649   0.990       .  S
O629        H658   0.989       .  S
O630        C631   1.279       .  A
C631        C832   1.486       .  S
O632        H651   0.990       .  S
O632        H655   0.990       .  S
O633        H647   0.990       .  S
O633        H654   0.989       .  S
O634        C638   1.282       .  A
O635        C638   1.283       .  A
O636        H646   0.991       .  S
O637        H650   0.990       .  S
C638       C1196   1.474       .  S
Zr661       O662   2.440       .  S
Zr661       O663   2.452       .  S
Zr661       O664   2.466       .  S
Zr661       O667   2.437       .  S
Zr661       O669   2.375       .  S
Zr661       O670   2.389       .  S
Zr661       O671   2.405       .  S
Zr661       O672   2.401       .  S
O662        H718   0.988       .  S
O662        H726   0.990       .  S
O663        C683   1.288       .  A
O664        C685   1.290       .  A
O665       Zr675   2.443       .  S
O665        C684   1.286       .  A
O666       Zr674   2.434       .  S
O666        C685   1.284       .  A
O667        C684   1.286       .  A
O668       Zr676   2.399       .  S
O668        C683   1.277       .  A
O669       Zr674   2.394       .  S
O669       Zr676   2.371       .  S
O670       Zr675   2.398       .  S
O670       Zr676   2.384       .  S
O670        H705   0.964       .  S
O671       Zr674   2.403       .  S
O671       Zr691   2.399       .  S
O671        H708   0.966       .  S
O672       Zr675   2.391       .  S
O672       Zr691   2.389       .  S
Zr673       O698   2.443       .  S
Zr673       O692   2.424       .  S
Zr673       O700   2.420       .  S
Zr673       O688   2.419       .  S
Zr673       O679   2.386       .  S
Zr673       O680   2.408       .  S
Zr673       O681   2.373       .  S
Zr673       O682   2.383       .  S
Zr674       O693   2.436       .  S
Zr674       O686   2.433       .  S
Zr674       O687   2.442       .  S
Zr674       O680   2.402       .  S
Zr674       O681   2.389       .  S
Zr675       O677   2.436       .  S
Zr675       O699   2.437       .  S
Zr675       O701   2.439       .  S
Zr675       O679   2.388       .  S
Zr675       O682   2.397       .  S
Zr676       O702   2.436       .  S
Zr676       O703   2.436       .  S
Zr676       O678   2.439       .  S
Zr676       O679   2.383       .  S
Zr676       O680   2.398       .  S
O677        H714   0.990       .  S
O678        H709   0.990       .  S
O678        H723   0.990       .  S
O680        H706   0.965       .  S
O681       Zr691   2.376       .  S
O682       Zr691   2.390       .  S
O682        H707   0.965       .  S
C683        C825   1.480   1_545  S
C684       C1000   1.490       .  S
C685       C1420   1.524       .  S
O686        H722   0.990       .  S
O687        C689   1.287       .  A
O688        C689   1.280       .  A
C689        C972   1.486       .  S
O690       Zr691   2.435       .  S
O690        H719   0.990       .  S
Zr691       O694   2.436       .  S
Zr691       O695   2.436       .  S
Zr691       O696   2.419       .  S
O692        C697   1.280       .  A
O693        H710   0.989       .  S
O693        H725   0.990       .  S
O694        H711   0.990       .  S
O695        H715   0.990       .  S
O695        H724   0.990       .  S
O696        C697   1.281       .  A
C697        C804   1.482       .  S
O698        H717   0.991       .  S
O698        H721   0.990       .  S
O699        H713   0.990       .  S
O699        H720   0.990       .  S
O700        C704   1.281       .  A
O701        C704   1.285       .  A
O702        H712   0.990       .  S
O703        H716   0.990       .  S
C704       C1112   1.478       .  S
Zr727       O728   2.439       .  S
Zr727       O729   2.418       .  S
Zr727       O730   2.422       .  S
Zr727       O733   2.413       .  S
Zr727       O735   2.383       .  S
Zr727       O736   2.376       .  S
Zr727       O737   2.401       .  S
Zr727       O738   2.393       .  S
O728        H784   0.990       .  S
O728        H792   0.989       .  S
O729        C749   1.282       .  A
O730        C751   1.282       .  A
O731       Zr741   2.446       .  S
O731        C750   1.288       .  A
O732       Zr740   2.437       .  S
O732        C751   1.285       .  A
O733        C750   1.281       .  A
O734       Zr742   2.432       .  S
O734        C749   1.283       .  A
O735       Zr740   2.400       .  S
O735       Zr742   2.375       .  S
O736       Zr741   2.376       .  S
O736       Zr742   2.376       .  S
O736        H771   0.967       .  S
O737       Zr740   2.407       .  S
O737       Zr757   2.391       .  S
O737        H774   0.966       .  S
O738       Zr741   2.382       .  S
O738       Zr757   2.386       .  S
Zr739       O764   2.441       .  S
Zr739       O758   2.442       .  S
Zr739       O766   2.436       .  S
Zr739       O754   2.440       .  S
Zr739       O745   2.405       .  S
Zr739       O746   2.410       .  S
Zr739       O747   2.379       .  S
Zr739       O748   2.387       .  S
Zr740       O759   2.436       .  S
Zr740       O752   2.434       .  S
Zr740       O753   2.457       .  S
Zr740       O746   2.402       .  S
Zr740       O747   2.395       .  S
Zr741       O743   2.434       .  S
Zr741       O765   2.437       .  S
Zr741       O767   2.411       .  S
Zr741       O745   2.397       .  S
Zr741       O748   2.397       .  S
Zr742       O768   2.433       .  S
Zr742       O769   2.436       .  S
Zr742       O744   2.438       .  S
Zr742       O745   2.397       .  S
Zr742       O746   2.399       .  S
O743        H780   0.990       .  S
O744        H775   0.990       .  S
O744        H789   0.990       .  S
O746        H772   0.966       .  S
O747       Zr757   2.385       .  S
O748       Zr757   2.381       .  S
O748        H773   0.965       .  S
C749        C937   1.486       .  S
C750        C888   1.493       .  S
C751       C1357   1.477       .  S
O752        H788   0.990       .  S
O753        C755   1.288       .  A
O754        C755   1.284       .  A
C755        C860   1.500       .  S
O756       Zr757   2.437       .  S
O756        H785   0.990       .  S
Zr757       O760   2.434       .  S
Zr757       O761   2.440       .  S
Zr757       O762   2.403       .  S
O758        C763   1.285       .  A
O759        H776   0.990       .  S
O759        H791   0.990       .  S
O760        H777   0.991       .  S
O761        H781   0.990       .  S
O761        H790   0.990       .  S
O762        C763   1.278       .  A
C763        C916   1.483       .  S
O764        H783   0.990       .  S
O764        H787   0.991       .  S
O765        H779   0.990       .  S
O765        H786   0.990       .  S
O766        C770   1.285       .  A
O767        C770   1.281       .  A
O768        H778   0.990       .  S
O769        H782   0.990       .  S
C770       C1028   1.477       .  S
C793        C794   1.406       .  A
C793        C798   1.410       .  A
C793        C811   1.452       .  S
C794        C799   1.494       .  S
C794        C795   1.408       .  A
C795        C796   1.412       .  A
C795        C800   1.451       .  S
C796        C797   1.421       .  A
C796        C812   1.451       .  S
C797        C798   1.423       .  A
C798        C801   1.451       .  S
C799        C802   1.410       .  A
C799        C806   1.411       .  A
C800        N817   1.157       .  T
C801        N819   1.157       .  T
C802        C803   1.410       .  A
C802        C807   1.450       .  S
C803        C804   1.415       .  A
C803        C809   1.452       .  S
C804        C805   1.413       .  A
C805        C806   1.410       .  A
C805        C808   1.451       .  S
C806        C810   1.450       .  S
C807        N814   1.157       .  T
C808        N815   1.157       .  T
C809        N813   1.157       .  T
C810        N816   1.157       .  T
C811        N820   1.157       .  T
C812        N818   1.157       .  T
C821        C822   1.412       .  A
C821        C826   1.410       .  A
C821        C839   1.450       .  S
C822        C827   1.493       .  S
C822        C823   1.410       .  A
C823        C824   1.407       .  A
C823        C828   1.452       .  S
C824        C825   1.417       .  A
C824        C840   1.452       .  S
C825        C826   1.412       .  A
C826        C829   1.450       .  S
C827        C830   1.411       .  A
C827        C834   1.409       .  A
C828        N845   1.157       .  T
C829        N847   1.157       .  T
C830        C831   1.412       .  A
C830        C835   1.451       .  S
C831        C832   1.417       .  A
C831        C837   1.452       .  S
C832        C833   1.415       .  A
C833        C834   1.406       .  A
C833        C836   1.450       .  S
C834        C838   1.452       .  S
C835        N842   1.157       .  T
C836        N843   1.157       .  T
C837        N841   1.158       .  T
C838        N844   1.157       .  T
C839        N848   1.157       .  T
C840        N846   1.157       .  T
C849        C850   1.414       .  A
C849        C854   1.415       .  A
C849        C867   1.451       .  S
C850        C855   1.509       .  S
C850        C851   1.412       .  A
C851        C852   1.415       .  A
C851        C856   1.450       .  S
C852        C853   1.417       .  A
C852        C868   1.451       .  S
C853        C854   1.416       .  A
C854        C857   1.450       .  S
C855        C858   1.412       .  A
C855        C862   1.414       .  A
C856        N873   1.157       .  T
C857        N875   1.157       .  T
C858        C859   1.415       .  A
C858        C863   1.451       .  S
C859        C860   1.418       .  A
C859        C865   1.451       .  S
C860        C861   1.416       .  A
C861        C862   1.416       .  A
C861        C864   1.449       .  S
C862        C866   1.451       .  S
C863        N870   1.157       .  T
C864        N871   1.157       .  T
C865        N869   1.157       .  T
C866        N872   1.157       .  T
C867        N876   1.157       .  T
C868        N874   1.157   1_655  T
C877        C878   1.408       .  A
C877        C882   1.409       .  A
C877        C895   1.451       .  S
C878        C883   1.493       .  S
C878        C879   1.411       .  A
C879        C880   1.410       .  A
C879        C884   1.451       .  S
C880        C881   1.415       .  A
C880        C896   1.450       .  S
C881        C882   1.418       .  A
C882        C885   1.451       .  S
C883        C886   1.406       .  A
C883        C890   1.409       .  A
C884        N901   1.157       .  T
C885        N903   1.157       .  T
C886        C887   1.409       .  A
C886        C891   1.452       .  S
C887        C888   1.422       .  A
C887        C893   1.452       .  S
C888        C889   1.418       .  A
C889        C890   1.412       .  A
C889        C892   1.450       .  S
C890        C894   1.451       .  S
C891        N898   1.157       .  T
C892        N899   1.157       .  T
C893        N897   1.157       .  T
C894        N900   1.157       .  T
C895        N904   1.157       .  T
C896        N902   1.157       .  T
C905        C906   1.408       .  A
C905        C910   1.408       .  A
C905        C923   1.452       .  S
C906        C911   1.495       .  S
C906        C907   1.411       .  A
C907        C908   1.413       .  A
C907        C912   1.451       .  S
C908        C909   1.417       .  A
C908        C924   1.452   1_565  S
C909        C910   1.415       .  A
C910        C913   1.450       .  S
C911        C914   1.412       .  A
C911        C918   1.411       .  A
C912        N929   1.157       .  T
C913        N931   1.157   1_655  T
C914        C915   1.411       .  A
C914        C919   1.449       .  S
C915        C916   1.412       .  A
C915        C921   1.450       .  S
C916        C917   1.416       .  A
C917        C918   1.408       .  A
C917        C920   1.452       .  S
C918        C922   1.452       .  S
C919        N926   1.157       .  T
C920        N927   1.157       .  T
C921        N925   1.157       .  T
C922        N928   1.157       .  T
C923        N932   1.157       .  T
C924        N930   1.158       .  T
C933        C934   1.414       .  A
C933        C938   1.410       .  A
C933        C951   1.451       .  S
C934        C939   1.499       .  S
C934        C935   1.413       .  A
C935        C936   1.410       .  A
C935        C940   1.452       .  S
C936        C937   1.416       .  A
C936        C952   1.451       .  S
C937        C938   1.414       .  A
C938        C941   1.453       .  S
C939        C942   1.414       .  A
C939        C946   1.417       .  A
C940        N957   1.157       .  T
C941        N959   1.157       .  T
C942        C943   1.407       .  A
C942        C947   1.450       .  S
C943        C944   1.409       .  A
C943        C949   1.453       .  S
C944        C945   1.408       .  A
C945        C946   1.411       .  A
C945        C948   1.450       .  S
C946        C950   1.452       .  S
C947        N954   1.157       .  T
C948        N955   1.157       .  T
C949        N953   1.157       .  T
C950        N956   1.157       .  T
C951        N960   1.157       .  T
C952        N958   1.157       .  T
C961        C962   1.408       .  A
C961        C966   1.408       .  A
C961        C979   1.450       .  S
C962        C967   1.488       .  S
C962        C963   1.409       .  A
C963        C964   1.407       .  A
C963        C968   1.452       .  S
C964        C965   1.415       .  A
C964        C980   1.451       .  S
C965        C966   1.415       .  A
C966        C969   1.451       .  S
C967        C970   1.408       .  A
C967        C974   1.408       .  A
C968        N985   1.157       .  T
C969        N987   1.157       .  T
C970        C971   1.407       .  A
C970        C975   1.452       .  S
C971        C972   1.415       .  A
C971        C977   1.450       .  S
C972        C973   1.420       .  A
C973        C974   1.410       .  A
C973        C976   1.452       .  S
C974        C978   1.452       .  S
C975        N982   1.157       .  T
C976        N983   1.157       .  T
C977        N981   1.157       .  T
C978        N984   1.157       .  T
C979        N988   1.157       .  T
C980        N986   1.157       .  T
C989        C990   1.409       .  A
C989        C994   1.415       .  A
C989       C1007   1.452       .  S
C990        C995   1.502       .  S
C990        C991   1.407       .  A
C991        C992   1.414       .  A
C991        C996   1.452       .  S
C992        C993   1.425       .  A
C992       C1008   1.450       .  S
C993        C994   1.422       .  A
C994        C997   1.449       .  S
C995        C998   1.410       .  A
C995       C1002   1.412       .  A
C996       N1013   1.157       .  T
C997       N1015   1.157       .  T
C998        C999   1.411       .  A
C998       C1003   1.450       .  S
C999       C1000   1.416       .  A
C999       C1005   1.451       .  S
C1000      C1001   1.415       .  A
C1001      C1002   1.415       .  A
C1001      C1004   1.450       .  S
C1002      C1006   1.450       .  S
C1003      N1010   1.157       .  T
C1004      N1011   1.157       .  T
C1005      N1009   1.157       .  T
C1006      N1012   1.157       .  T
C1007      N1016   1.157       .  T
C1008      N1014   1.157       .  T
C1017      C1018   1.404       .  A
C1017      C1022   1.412       .  A
C1017      C1035   1.451       .  S
C1018      C1023   1.491       .  S
C1018      C1019   1.405       .  A
C1019      C1020   1.409       .  A
C1019      C1024   1.454       .  S
C1020      C1021   1.426       .  A
C1020      C1036   1.448       .  S
C1021      C1022   1.427       .  A
C1022      C1025   1.450       .  S
C1023      C1026   1.410       .  A
C1023      C1030   1.410       .  A
C1024      N1041   1.157       .  T
C1025      N1043   1.157       .  T
C1026      C1027   1.408       .  A
C1026      C1031   1.451       .  S
C1027      C1028   1.414       .  A
C1027      C1033   1.451       .  S
C1028      C1029   1.413       .  A
C1029      C1030   1.407       .  A
C1029      C1032   1.451       .  S
C1030      C1034   1.451       .  S
C1031      N1038   1.157       .  T
C1032      N1039   1.157       .  T
C1033      N1037   1.157       .  T
C1034      N1040   1.157       .  T
C1035      N1044   1.157       .  T
C1036      N1042   1.157       .  T
C1045      C1046   1.406   1_554  A
C1045      C1050   1.408       .  A
C1045      C1063   1.452       .  S
C1046      C1051   1.485   1_556  S
C1046      C1047   1.408       .  A
C1047      C1048   1.407       .  A
C1047      C1052   1.451       .  S
C1048      C1049   1.414       .  A
C1048      C1064   1.450       .  S
C1049      C1050   1.419   1_556  A
C1050      C1053   1.451       .  S
C1051      C1054   1.407   1_554  A
C1051      C1058   1.407       .  A
C1052      N1069   1.157       .  T
C1053      N1071   1.157       .  T
C1054      C1055   1.406       .  A
C1054      C1059   1.451       .  S
C1055      C1056   1.415   1_556  A
C1055      C1061   1.450       .  S
C1056      C1057   1.420       .  A
C1057      C1058   1.407       .  A
C1057      C1060   1.452       .  S
C1058      C1062   1.452       .  S
C1059      N1066   1.157       .  T
C1060      N1067   1.157       .  T
C1061      N1065   1.157       .  T
C1062      N1068   1.157       .  T
C1063      N1072   1.157       .  T
C1064      N1070   1.157       .  T
C1073      C1074   1.411   1_554  A
C1073      C1078   1.409       .  A
C1073      C1091   1.450       .  S
C1074      C1079   1.487       .  S
C1074      C1075   1.409       .  A
C1075      C1076   1.404       .  A
C1075      C1080   1.452       .  S
C1076      C1077   1.412       .  A
C1076      C1092   1.451       .  S
C1077      C1078   1.410   1_556  A
C1078      C1081   1.450       .  S
C1079      C1082   1.406       .  A
C1079      C1086   1.407       .  A
C1080      N1097   1.157       .  T
C1081      N1099   1.157       .  T
C1082      C1083   1.406       .  A
C1082      C1087   1.453   1_556  S
C1083      C1084   1.420       .  A
C1083      C1089   1.451       .  S
C1084      C1085   1.420       .  A
C1085      C1086   1.409       .  A
C1085      C1088   1.449       .  S
C1086      C1090   1.452       .  S
C1087      N1094   1.157       .  T
C1088      N1095   1.156       .  T
C1089      N1093   1.157       .  T
C1090      N1096   1.157       .  T
C1091      N1100   1.157       .  T
C1092      N1098   1.157       .  T
C1101      C1102   1.409       .  A
C1101      C1106   1.409       .  A
C1101      C1119   1.450       .  S
C1102      C1107   1.489       .  S
C1102      C1103   1.408       .  A
C1103      C1104   1.405       .  A
C1103      C1108   1.453       .  S
C1104      C1105   1.417       .  A
C1104      C1120   1.451       .  S
C1105      C1106   1.416       .  A
C1106      C1109   1.451       .  S
C1107      C1110   1.406       .  A
C1107      C1114   1.414       .  A
C1108      N1125   1.157       .  T
C1109      N1127   1.157       .  T
C1110      C1111   1.406       .  A
C1110      C1115   1.451       .  S
C1111      C1112   1.416       .  A
C1111      C1117   1.450       .  S
C1112      C1113   1.410       .  A
C1113      C1114   1.409       .  A
C1113      C1116   1.450       .  S
C1114      C1118   1.451       .  S
C1115      N1122   1.157       .  T
C1116      N1123   1.157       .  T
C1117      N1121   1.156       .  T
C1118      N1124   1.157       .  T
C1119      N1128   1.157       .  T
C1120      N1126   1.157       .  T
C1129      C1130   1.412   1_554  A
C1129      C1134   1.416       .  A
C1129      C1147   1.450       .  S
C1130      C1135   1.506       .  S
C1130      C1131   1.413       .  A
C1131      C1132   1.414       .  A
C1131      C1136   1.450       .  S
C1132      C1133   1.414       .  A
C1132      C1148   1.449       .  S
C1133      C1134   1.417   1_556  A
C1134      C1137   1.451       .  S
C1135      C1138   1.412       .  A
C1135      C1142   1.410       .  A
C1136      N1153   1.157       .  T
C1137      N1155   1.157       .  T
C1138      C1139   1.417       .  A
C1138      C1143   1.451       .  S
C1139      C1140   1.421       .  A
C1139      C1145   1.451       .  S
C1140      C1141   1.419   1_556  A
C1141      C1142   1.413   1_554  A
C1141      C1144   1.450       .  S
C1142      C1146   1.451   1_556  S
C1143      N1150   1.157       .  T
C1144      N1151   1.157       .  T
C1145      N1149   1.158       .  T
C1146      N1152   1.157       .  T
C1147      N1156   1.157       .  T
C1148      N1154   1.157       .  T
C1157      C1158   1.410       .  A
C1157      C1162   1.411       .  A
C1157      C1175   1.451       .  S
C1158      C1163   1.501       .  S
C1158      C1159   1.412       .  A
C1159      C1160   1.414       .  A
C1159      C1164   1.450       .  S
C1160      C1161   1.416       .  A
C1160      C1176   1.451       .  S
C1161      C1162   1.416       .  A
C1162      C1165   1.451       .  S
C1163      C1166   1.411   1_556  A
C1163      C1170   1.410       .  A
C1164      N1181   1.157       .  T
C1165      N1183   1.157       .  T
C1166      C1167   1.413       .  A
C1166      C1171   1.451       .  S
C1167      C1168   1.416   1_554  A
C1167      C1173   1.451       .  S
C1168      C1169   1.417       .  A
C1169      C1170   1.413       .  A
C1169      C1172   1.450       .  S
C1170      C1174   1.450       .  S
C1171      N1178   1.157       .  T
C1172      N1179   1.157       .  T
C1173      N1177   1.157       .  T
C1174      N1180   1.157       .  T
C1175      N1184   1.157       .  T
C1176      N1182   1.157       .  T
C1185      C1186   1.408       .  A
C1185      C1190   1.403       .  A
C1185      C1203   1.453       .  S
C1186      C1191   1.485       .  S
C1186      C1187   1.409       .  A
C1187      C1188   1.411       .  A
C1187      C1192   1.450       .  S
C1188      C1189   1.412       .  A
C1188      C1204   1.449       .  S
C1189      C1190   1.414       .  A
C1190      C1193   1.452       .  S
C1191      C1194   1.410       .  A
C1191      C1198   1.408       .  A
C1192      N1209   1.157       .  T
C1193      N1211   1.157       .  T
C1194      C1195   1.407       .  A
C1194      C1199   1.450       .  S
C1195      C1196   1.412       .  A
C1195      C1201   1.451       .  S
C1196      C1197   1.414       .  A
C1197      C1198   1.405       .  A
C1197      C1200   1.450       .  S
C1198      C1202   1.452       .  S
C1199      N1206   1.157       .  T
C1200      N1207   1.157       .  T
C1201      N1205   1.157       .  T
C1202      N1208   1.157       .  T
C1203      N1212   1.157       .  T
C1204      N1210   1.157       .  T
C1213      C1214   1.412       .  A
C1213      C1218   1.414       .  A
C1213      C1231   1.449       .  S
C1214      C1219   1.506       .  S
C1214      C1215   1.413   1_554  A
C1215      C1216   1.413       .  A
C1215      C1220   1.450       .  S
C1216      C1217   1.413       .  A
C1216      C1232   1.451       .  S
C1217      C1218   1.414   1_556  A
C1218      C1221   1.451       .  S
C1219      C1222   1.412   1_554  A
C1219      C1226   1.413       .  A
C1220      N1237   1.157       .  T
C1221      N1239   1.157       .  T
C1222      C1223   1.415       .  A
C1222      C1227   1.451       .  S
C1223      C1224   1.415   1_556  A
C1223      C1229   1.450       .  S
C1224      C1225   1.413       .  A
C1225      C1226   1.417       .  A
C1225      C1228   1.448       .  S
C1226      C1230   1.450       .  S
C1227      N1234   1.157       .  T
C1228      N1235   1.157       .  T
C1229      N1233   1.157       .  T
C1230      N1236   1.157       .  T
C1231      N1240   1.157       .  T
C1232      N1238   1.157       .  T
C1241      C1242   1.411       .  A
C1241      C1246   1.412       .  A
C1241      C1259   1.452       .  S
C1242      C1247   1.500       .  S
C1242      C1243   1.412       .  A
C1243      C1244   1.412       .  A
C1243      C1248   1.451       .  S
C1244      C1245   1.415       .  A
C1244      C1260   1.450       .  S
C1245      C1246   1.418       .  A
C1246      C1249   1.449       .  S
C1247      C1250   1.411       .  A
C1247      C1254   1.411       .  A
C1248      N1265   1.157       .  T
C1249      N1267   1.156       .  T
C1250      C1251   1.411       .  A
C1250      C1255   1.452   1_556  S
C1251      C1252   1.417       .  A
C1251      C1257   1.450   1_556  S
C1252      C1253   1.416       .  A
C1253      C1254   1.412       .  A
C1253      C1256   1.450       .  S
C1254      C1258   1.450       .  S
C1255      N1262   1.157       .  T
C1256      N1263   1.157       .  T
C1257      N1261   1.157       .  T
C1258      N1264   1.157       .  T
C1259      N1268   1.157       .  T
C1260      N1266   1.157       .  T
C1269      C1270   1.409   1_554  A
C1269      C1274   1.410       .  A
C1269      C1287   1.452   1_455  S
C1270      C1275   1.499       .  S
C1270      C1271   1.408       .  A
C1271      C1272   1.411       .  A
C1271      C1276   1.452       .  S
C1272      C1273   1.425       .  A
C1272      C1288   1.451       .  S
C1273      C1274   1.424   1_556  A
C1274      C1277   1.452   1_455  S
C1275      C1278   1.408       .  A
C1275      C1282   1.410       .  A
C1276      N1293   1.157       .  T
C1277      N1295   1.158       .  T
C1278      C1279   1.412       .  A
C1278      C1283   1.453   1_455  S
C1279      C1280   1.422       .  A
C1279      C1285   1.450   1_455  S
C1280      C1281   1.422       .  A
C1281      C1282   1.413       .  A
C1281      C1284   1.451   1_556  S
C1282      C1286   1.453       .  S
C1283      N1290   1.157       .  T
C1284      N1291   1.157       .  T
C1285      N1289   1.157       .  T
C1286      N1292   1.157   1_556  T
C1287      N1296   1.157       .  T
C1288      N1294   1.157       .  T
C1297      C1298   1.410       .  A
C1297      C1302   1.406       .  A
C1297      C1315   1.451       .  S
C1298      C1303   1.492       .  S
C1298      C1299   1.411   1_556  A
C1299      C1300   1.410       .  A
C1299      C1304   1.450       .  S
C1300      C1301   1.413       .  A
C1300      C1316   1.452       .  S
C1301      C1302   1.411   1_554  A
C1302      C1305   1.451       .  S
C1303      C1306   1.411   1_556  A
C1303      C1310   1.411       .  A
C1304      N1321   1.157       .  T
C1305      N1323   1.157       .  T
C1306      C1307   1.408       .  A
C1306      C1311   1.451       .  S
C1307      C1308   1.412   1_554  A
C1307      C1313   1.452       .  S
C1308      C1309   1.411       .  A
C1309      C1310   1.411       .  A
C1309      C1312   1.450       .  S
C1310      C1314   1.450       .  S
C1311      N1318   1.157   1_455  T
C1312      N1319   1.157       .  T
C1313      N1317   1.157   1_455  T
C1314      N1320   1.157       .  T
C1315      N1324   1.157       .  T
C1316      N1322   1.157       .  T
C1325      C1326   1.413       .  A
C1325      C1330   1.414       .  A
C1325      C1343   1.450       .  S
C1326      C1331   1.501       .  S
C1326      C1327   1.412       .  A
C1327      C1328   1.411       .  A
C1327      C1332   1.450       .  S
C1328      C1329   1.412       .  A
C1328      C1344   1.451       .  S
C1329      C1330   1.412       .  A
C1330      C1333   1.450       .  S
C1331      C1334   1.411       .  A
C1331      C1338   1.413       .  A
C1332      N1349   1.157       .  T
C1333      N1351   1.157       .  T
C1334      C1335   1.410       .  A
C1334      C1339   1.451       .  S
C1335      C1336   1.413       .  A
C1335      C1341   1.450       .  S
C1336      C1337   1.413       .  A
C1337      C1338   1.417       .  A
C1337      C1340   1.449       .  S
C1338      C1342   1.449       .  S
C1339      N1346   1.157       .  T
C1340      N1347   1.157       .  T
C1341      N1345   1.157       .  T
C1342      N1348   1.157       .  T
C1343      N1352   1.157       .  T
C1344      N1350   1.157       .  T
C1353      C1354   1.414       .  A
C1353      C1358   1.411       .  A
C1353      C1371   1.450       .  S
C1354      C1359   1.496       .  S
C1354      C1355   1.410       .  A
C1355      C1356   1.408       .  A
C1355      C1360   1.451       .  S
C1356      C1357   1.413       .  A
C1356      C1372   1.451       .  S
C1357      C1358   1.410       .  A
C1358      C1361   1.451       .  S
C1359      C1362   1.412       .  A
C1359      C1366   1.411       .  A
C1360      N1377   1.157       .  T
C1361      N1379   1.157       .  T
C1362      C1363   1.413       .  A
C1362      C1367   1.450       .  S
C1363      C1364   1.413       .  A
C1363      C1369   1.449       .  S
C1364      C1365   1.413       .  A
C1365      C1366   1.409       .  A
C1365      C1368   1.451       .  S
C1366      C1370   1.452       .  S
C1367      N1374   1.157       .  T
C1368      N1375   1.157       .  T
C1369      N1373   1.157       .  T
C1370      N1376   1.157       .  T
C1371      N1380   1.157       .  T
C1372      N1378   1.157       .  T
C1381      C1382   1.409       .  A
C1381      C1386   1.411       .  A
C1381      C1399   1.452       .  S
C1382      C1387   1.491       .  S
C1382      C1383   1.406       .  A
C1383      C1384   1.409       .  A
C1383      C1388   1.452       .  S
C1384      C1385   1.419       .  A
C1384      C1400   1.450       .  S
C1385      C1386   1.417       .  A
C1386      C1389   1.450       .  S
C1387      C1390   1.410       .  A
C1387      C1394   1.410       .  A
C1388      N1405   1.157       .  T
C1389      N1407   1.157       .  T
C1390      C1391   1.409       .  A
C1390      C1395   1.451       .  S
C1391      C1392   1.415       .  A
C1391      C1397   1.452       .  S
C1392      C1393   1.411       .  A
C1393      C1394   1.406       .  A
C1393      C1396   1.452       .  S
C1394      C1398   1.450       .  S
C1395      N1402   1.157       .  T
C1396      N1403   1.157       .  T
C1397      N1401   1.157       .  T
C1398      N1404   1.157       .  T
C1399      N1408   1.157       .  T
C1400      N1406   1.157       .  T
C1409      C1410   1.412       .  A
C1409      C1414   1.414       .  A
C1409      C1427   1.449       .  S
C1410      C1415   1.500       .  S
C1410      C1411   1.410       .  A
C1411      C1412   1.410       .  A
C1411      C1416   1.451       .  S
C1412      C1413   1.415       .  A
C1412      C1428   1.452       .  S
C1413      C1414   1.412       .  A
C1414      C1417   1.450       .  S
C1415      C1418   1.403       .  A
C1415      C1422   1.404       .  A
C1416      N1433   1.157   1_545  T
C1417      N1435   1.157       .  T
C1418      C1419   1.414       .  A
C1418      C1423   1.452       .  S
C1419      C1420   1.430       .  A
C1419      C1425   1.449       .  S
C1420      C1421   1.434       .  A
C1421      C1422   1.416       .  A
C1421      C1424   1.450       .  S
C1422      C1426   1.454       .  S
C1423      N1430   1.157       .  T
C1424      N1431   1.157       .  T
C1425      N1429   1.157       .  T
C1426      N1432   1.157       .  T
C1427      N1436   1.157       .  T
C1428      N1434   1.157   1_545  T
C1437      C1438   1.410       .  A
C1437      C1442   1.414       .  A
C1437      C1455   1.451       .  S
C1438      C1443   1.493       .  S
C1438      C1439   1.406       .  A
C1439      C1440   1.407       .  A
C1439      C1444   1.452       .  S
C1440      C1441   1.420       .  A
C1440      C1456   1.450       .  S
C1441      C1442   1.419       .  A
C1442      C1445   1.450       .  S
C1443      C1446   1.411       .  A
C1443      C1450   1.409       .  A
C1444      N1461   1.157       .  T
C1445      N1463   1.157       .  T
C1446      C1447   1.410       .  A
C1446      C1451   1.450       .  S
C1447      C1448   1.416       .  A
C1447      C1453   1.452       .  S
C1448      C1449   1.417       .  A
C1449      C1450   1.408       .  A
C1449      C1452   1.452       .  S
C1450      C1454   1.451       .  S
C1451      N1458   1.157       .  T
C1452      N1459   1.157       .  T
C1453      N1457   1.158       .  T
C1454      N1460   1.157       .  T
C1455      N1464   1.157       .  T
C1456      N1462   1.156       .  T
C1465      C1466   1.410       .  A
C1465      C1470   1.408       .  A
C1465      C1483   1.451       .  S
C1466      C1471   1.484       .  S
C1466      C1467   1.409       .  A
C1467      C1468   1.404       .  A
C1467      C1472   1.453       .  S
C1468      C1469   1.415       .  A
C1468      C1484   1.451       .  S
C1469      C1470   1.413       .  A
C1470      C1473   1.451       .  S
C1471      C1474   1.411       .  A
C1471      C1478   1.411       .  A
C1472      N1489   1.157       .  T
C1473      N1491   1.157       .  T
C1474      C1475   1.401       .  A
C1474      C1479   1.452       .  S
C1475      C1476   1.409       .  A
C1475      C1481   1.452       .  S
C1476      C1477   1.410       .  A
C1477      C1478   1.404       .  A
C1477      C1480   1.452       .  S
C1478      C1482   1.451       .  S
C1479      N1486   1.157       .  T
C1480      N1487   1.157       .  T
C1481      N1485   1.157       .  T
C1482      N1488   1.157       .  T
C1483      N1492   1.157       .  T
C1484      N1490   1.157       .  T
C1493      C1494   1.407       .  A
C1493      C1498   1.406       .  A
C1493      C1511   1.453       .  S
C1494      C1499   1.487       .  S
C1494      C1495   1.409       .  A
C1495      C1496   1.410       .  A
C1495      C1500   1.452       .  S
C1496      C1497   1.416       .  A
C1496      C1512   1.450   1_545  S
C1497      C1498   1.417       .  A
C1498      C1501   1.451       .  S
C1499      C1502   1.410       .  A
C1499      C1506   1.412       .  A
C1500      N1517   1.157   1_545  T
C1501      N1519   1.157       .  T
C1502      C1503   1.403       .  A
C1502      C1507   1.451   1_545  S
C1503      C1504   1.412       .  A
C1503      C1509   1.452       .  S
C1504      C1505   1.410       .  A
C1505      C1506   1.406       .  A
C1505      C1508   1.451       .  S
C1506      C1510   1.450       .  S
C1507      N1514   1.157       .  T
C1508      N1515   1.157       .  T
C1509      N1513   1.157   1_545  T
C1510      N1516   1.157       .  T
C1511      N1520   1.157       .  T
C1512      N1518   1.157       .  T
C1521      C1522   1.410       .  A
C1521      C1526   1.408       .  A
C1521      C1539   1.451   1_455  S
C1522      C1527   1.493       .  S
C1522      C1523   1.410       .  A
C1523      C1524   1.409       .  A
C1523      C1528   1.452       .  S
C1524      C1525   1.416       .  A
C1524      C1540   1.450       .  S
C1525      C1526   1.418       .  A
C1526      C1529   1.452       .  S
C1527      C1530   1.413       .  A
C1527      C1534   1.409       .  A
C1528      N1545   1.157       .  T
C1529      N1547   1.157   1_455  T
C1530      C1531   1.411       .  A
C1530      C1535   1.451       .  S
C1531      C1532   1.413       .  A
C1531      C1537   1.451       .  S
C1532      C1533   1.414       .  A
C1533      C1534   1.406       .  A
C1533      C1536   1.451       .  S
C1534      C1538   1.451       .  S
C1535      N1542   1.157       .  T
C1536      N1543   1.157       .  T
C1537      N1541   1.157       .  T
C1538      N1544   1.157       .  T
C1539      N1548   1.157       .  T
C1540      N1546   1.157       .  T
C1549      C1550   1.409       .  A
C1549      C1554   1.412       .  A
C1549      C1567   1.450       .  S
C1550      C1555   1.496       .  S
C1550      C1551   1.410       .  A
C1551      C1552   1.409       .  A
C1551      C1556   1.452       .  S
C1552      C1553   1.416       .  A
C1552      C1568   1.451       .  S
C1553      C1554   1.416       .  A
C1554      C1557   1.450       .  S
C1555      C1558   1.409       .  A
C1555      C1562   1.410       .  A
C1556      N1573   1.157       .  T
C1557      N1575   1.157       .  T
C1558      C1559   1.410       .  A
C1558      C1563   1.453       .  S
C1559      C1560   1.419       .  A
C1559      C1565   1.450       .  S
C1560      C1561   1.417       .  A
C1561      C1562   1.412       .  A
C1561      C1564   1.451       .  S
C1562      C1566   1.450       .  S
C1563      N1570   1.157       .  T
C1564      N1571   1.157       .  T
C1565      N1569   1.157       .  T
C1566      N1572   1.157       .  T
C1567      N1576   1.157       .  T
C1568      N1574   1.157       .  T
C1577      C1578   1.407       .  A
C1577      C1582   1.413       .  A
C1577      C1595   1.452       .  S
C1578      C1583   1.499       .  S
C1578      C1579   1.408       .  A
C1579      C1580   1.414       .  A
C1579      C1584   1.452       .  S
C1580      C1581   1.423       .  A
C1580      C1596   1.450       .  S
C1581      C1582   1.425       .  A
C1582      C1585   1.451       .  S
C1583      C1586   1.412       .  A
C1583      C1590   1.410       .  A
C1584      N1601   1.157       .  T
C1585      N1603   1.157       .  T
C1586      C1587   1.415       .  A
C1586      C1591   1.450       .  S
C1587      C1588   1.416       .  A
C1587      C1593   1.451       .  S
C1588      C1589   1.412       .  A
C1589      C1590   1.409       .  A
C1589      C1592   1.451       .  S
C1590      C1594   1.450       .  S
C1591      N1598   1.157       .  T
C1592      N1599   1.157       .  T
C1593      N1597   1.158       .  T
C1594      N1600   1.157       .  T
C1595      N1604   1.157       .  T
C1596      N1602   1.157       .  T
C1605      C1606   1.407   1_655  A
C1605      C1610   1.406       .  A
C1605      C1623   1.451       .  S
C1606      C1611   1.486   1_455  S
C1606      C1607   1.410       .  A
C1607      C1608   1.408       .  A
C1607      C1612   1.452       .  S
C1608      C1609   1.414       .  A
C1608      C1624   1.451       .  S
C1609      C1610   1.414   1_455  A
C1610      C1613   1.450       .  S
C1611      C1614   1.410       .  A
C1611      C1618   1.407       .  A
C1612      N1629   1.157       .  T
C1613      N1631   1.157       .  T
C1614      C1615   1.408       .  A
C1614      C1619   1.451       .  S
C1615      C1616   1.411       .  A
C1615      C1621   1.450       .  S
C1616      C1617   1.415       .  A
C1617      C1618   1.406       .  A
C1617      C1620   1.451       .  S
C1618      C1622   1.451   1_655  S
C1619      N1626   1.157       .  T
C1620      N1627   1.157       .  T
C1621      N1625   1.157       .  T
C1622      N1628   1.157       .  T
C1623      N1632   1.157       .  T
C1624      N1630   1.157       .  T
C1633      C1634   1.412       .  A
C1633      C1638   1.412       .  A
C1633      C1651   1.450   1_455  S
C1634      C1639   1.502       .  S
C1634      C1635   1.412       .  A
C1635      C1636   1.412       .  A
C1635      C1640   1.450       .  S
C1636      C1637   1.414       .  A
C1636      C1652   1.450       .  S
C1637      C1638   1.414       .  A
C1638      C1641   1.451   1_455  S
C1639      C1642   1.413       .  A
C1639      C1646   1.411       .  A
C1640      N1657   1.157       .  T
C1641      N1659   1.157       .  T
C1642      C1643   1.414       .  A
C1642      C1647   1.451       .  S
C1643      C1644   1.414       .  A
C1643      C1649   1.449       .  S
C1644      C1645   1.416       .  A
C1645      C1646   1.412       .  A
C1645      C1648   1.451       .  S
C1646      C1650   1.451       .  S
C1647      N1654   1.157       .  T
C1648      N1655   1.157       .  T
C1649      N1653   1.157       .  T
C1650      N1656   1.157       .  T
C1651      N1660   1.157       .  T
C1652      N1658   1.157       .  T
C1661      C1662   1.409   1_455  A
C1661      C1666   1.412       .  A
C1661      C1679   1.452       .  S
C1662      C1667   1.494       .  S
C1662      C1663   1.407       .  A
C1663      C1664   1.410       .  A
C1663      C1668   1.452       .  S
C1664      C1665   1.422       .  A
C1664      C1680   1.450       .  S
C1665      C1666   1.420   1_655  A
C1666      C1669   1.450       .  S
C1667      C1670   1.413       .  A
C1667      C1674   1.410       .  A
C1668      N1685   1.157       .  T
C1669      N1687   1.157       .  T
C1670      C1671   1.409       .  A
C1670      C1675   1.451       .  S
C1671      C1672   1.409       .  A
C1671      C1677   1.450       .  S
C1672      C1673   1.413       .  A
C1673      C1674   1.408       .  A
C1673      C1676   1.452   1_655  S
C1674      C1678   1.450   1_655  S
C1675      N1682   1.157       .  T
C1676      N1683   1.157       .  T
C1677      N1681   1.157       .  T
C1678      N1684   1.157       .  T
C1679      N1688   1.157       .  T
C1680      N1686   1.157       .  T
C1689      C1690   1.412       .  A
C1689      C1694   1.413       .  A
C1689      C1707   1.451       .  S
C1690      C1695   1.500       .  S
C1690      C1691   1.413   1_455  A
C1691      C1692   1.410       .  A
C1691      C1696   1.451       .  S
C1692      C1693   1.412   1_655  A
C1692      C1708   1.451       .  S
C1693      C1694   1.413       .  A
C1694      C1697   1.450       .  S
C1695      C1698   1.411       .  A
C1695      C1702   1.409       .  A
C1696      N1713   1.157       .  T
C1697      N1715   1.157       .  T
C1698      C1699   1.412       .  A
C1698      C1703   1.451       .  S
C1699      C1700   1.421       .  A
C1699      C1705   1.453       .  S
C1700      C1701   1.420       .  A
C1701      C1702   1.412       .  A
C1701      C1704   1.450       .  S
C1702      C1706   1.452       .  S
C1703      N1710   1.157       .  T
C1704      N1711   1.157       .  T
C1705      N1709   1.158       .  T
C1706      N1712   1.157       .  T
C1707      N1716   1.157       .  T
C1708      N1714   1.157       .  T
C1717      C1718   1.409       .  A
C1717      C1722   1.412       .  A
C1717      C1735   1.451       .  S
C1718      C1723   1.494       .  S
C1718      C1719   1.408       .  A
C1719      C1720   1.407       .  A
C1719      C1724   1.451   1_545  S
C1720      C1721   1.415       .  A
C1720      C1736   1.450   1_545  S
C1721      C1722   1.417       .  A
C1722      C1725   1.450       .  S
C1723      C1726   1.409       .  A
C1723      C1730   1.409       .  A
C1724      N1741   1.157       .  T
C1725      N1743   1.157       .  T
C1726      C1727   1.409       .  A
C1726      C1731   1.452       .  S
C1727      C1728   1.416       .  A
C1727      C1733   1.451       .  S
C1728      C1729   1.415       .  A
C1729      C1730   1.411       .  A
C1729      C1732   1.450       .  S
C1730      C1734   1.451       .  S
C1731      N1738   1.157   1_545  T
C1732      N1739   1.157       .  T
C1733      N1737   1.157   1_545  T
C1734      N1740   1.157       .  T
C1735      N1744   1.157       .  T
C1736      N1742   1.156       .  T
C1745      C1746   1.411       .  A
C1745      C1750   1.409       .  A
C1745      C1763   1.450       .  S
C1746      C1751   1.502       .  S
C1746      C1747   1.414   1_545  A
C1747      C1748   1.415       .  A
C1747      C1752   1.450       .  S
C1748      C1749   1.413   1_565  A
C1748      C1764   1.450       .  S
C1749      C1750   1.413       .  A
C1750      C1753   1.452       .  S
C1751      C1754   1.406       .  A
C1751      C1758   1.407   1_545  A
C1752      N1769   1.157       .  T
C1753      N1771   1.157       .  T
C1754      C1755   1.414       .  A
C1754      C1759   1.453       .  S
C1755      C1756   1.428       .  A
C1755      C1761   1.451       .  S
C1756      C1757   1.426       .  A
C1757      C1758   1.417   1_545  A
C1757      C1760   1.449   1_545  S
C1758      C1762   1.452       .  S
C1759      N1766   1.157       .  T
C1760      N1767   1.157       .  T
C1761      N1765   1.157       .  T
C1762      N1768   1.157       .  T
C1763      N1772   1.157       .  T
C1764      N1770   1.157       .  T
C1773      C1774   1.408   1_565  A
C1773      C1778   1.413       .  A
C1773      C1791   1.451       .  S
C1774      C1779   1.503   1_655  S
C1774      C1775   1.413       .  A
C1775      C1776   1.416       .  A
C1775      C1780   1.451       .  S
C1776      C1777   1.417       .  A
C1776      C1792   1.450       .  S
C1777      C1778   1.420   1_545  A
C1778      C1781   1.450       .  S
C1779      C1782   1.413   1_445  A
C1779      C1786   1.412       .  A
C1780      N1797   1.157       .  T
C1781      N1799   1.157       .  T
C1782      C1783   1.413       .  A
C1782      C1787   1.449       .  S
C1783      C1784   1.409   1_665  A
C1783      C1789   1.448       .  S
C1784      C1785   1.414       .  A
C1785      C1786   1.414       .  A
C1785      C1788   1.451       .  S
C1786      C1790   1.450       .  S
C1787      N1794   1.157       .  T
C1788      N1795   1.157       .  T
C1789      N1793   1.157       .  T
C1790      N1796   1.157       .  T
C1791      N1800   1.157   1_655  T
C1792      N1798   1.157       .  T
