geometry optimzed in LAMMPS
_audit_creation_date              2020-11-30 
_audit_creation_method            'lammps2cif' 
_symmetry_space_group_name_H-M    'P1' 
_symmetry_Int_Tables_number       1 
_symmetry_cell_setting            triclinic 
loop_ 
_symmetry_equiv_pos_as_xyz 
  x,y,z 
_cell_length_a                    33.78104806 
_cell_length_b                    33.676095138714196 
_cell_length_c                    32.61571711567119 
_cell_angle_alpha                 89.67664625299035 
_cell_angle_beta                  90.24881748661555 
_cell_angle_gamma                 120.03811767125286 
loop_ 
_atom_site_label 
_atom_site_type_symbol 
_atom_site_fract_x 
_atom_site_fract_y 
_atom_site_fract_z 
_atom_site_charge 
O1          O  0.30747053  0.92469540  0.02085279    -0.82900
C2          C  0.28840669  0.98919409  0.16478029     0.96400
O3          O  0.32124643  0.99300574  0.14327535    -0.72100
O4          O  0.36164617  0.97092485  0.08590704    -0.75600
Al5        Al  0.32059758  0.99392064  0.08582601     1.49000
C6          C  0.35625930  0.93510489  0.10292556     0.91700
O7          O  0.22775870  0.84971777  0.10606025    -0.81900
O8          O  0.17845634  0.89939875  0.06332288    -0.75400
Al9        Al  0.26773131  0.89124893  0.06570669     1.90100
O10         O  0.20298980  0.88852712  0.14054587    -0.74500
O11         O  0.22580659  0.98796323  0.06857328    -0.74300
O12         O  0.24959756  0.97736672  0.14917706    -0.80000
O13         O  0.29625491  0.03395607  0.08632628    -0.78200
O14         O  0.26806975  0.94043959  0.08514720    -1.14300
O15         O  0.32098549  0.99600172  0.02821984    -0.73500
C16         C  0.31893815  0.96412906  0.00633043     0.97200
C17         C  0.20597843  0.85291610  0.13595778     0.93600
Al18       Al  0.21814146  0.93860667  0.10394111     1.55600
O19         O  0.31727798  0.89941781  0.10175627    -0.78200
C20         C  0.26040445  0.02758606  0.06908860     0.97700
C21         C  0.18162252  0.87783799  0.03344284     0.92600
O22         O  0.21764189  0.87569057  0.02819925    -0.83500
O23         O  0.41119527  0.05633911  0.68812137    -0.82900
C24         C  0.34794889  0.97637371  0.83387933     0.96400
O25         O  0.34378394  0.00473269  0.81116878    -0.72100
O26         O  0.36705211  0.06669092  0.75161648    -0.75600
Al27       Al  0.34290534  0.00202456  0.75348283     1.49000
C28         C  0.40312169  0.09655624  0.76842823     0.91700
O29         O  0.48726077  0.05176003  0.77122337    -0.81900
O30         O  0.43588691  0.95178897  0.73279620    -0.75400
Al31       Al  0.44490915  0.04986042  0.73226149     1.90100
O32         O  0.44945346  0.99035535  0.80929254    -0.74500
O33         O  0.34665570  0.91123967  0.73949989    -0.74300
O34         O  0.35992523  0.94888756  0.81963220    -0.80000
O35         O  0.30214588  0.93773947  0.75561140    -0.78200
O36         O  0.39592438  0.00198756  0.75336575    -1.14300
O37         O  0.34073110  0.99870876  0.69568324    -0.73500
C38         C  0.37295658  0.02688803  0.67293414     0.97200
C39         C  0.48557342  0.02803725  0.80173217     0.93600
Al40       Al  0.39757179  0.95410902  0.77378240     1.55600
O41         O  0.43816515  0.09220039  0.76783980    -0.78200
C42         C  0.30755232  0.90760051  0.73859661     0.97700
C43         C  0.45686181  0.97543783  0.70193464     0.92600
O44         O  0.45869850  0.01352450  0.69534865    -0.83500
O45         O  0.02460423  0.27558810  0.15069830    -0.82900
C46         C  0.04433443  0.35807617  0.00434878     0.96400
O47         O  0.01123858  0.32803304  0.02534062    -0.72100
O48         O  0.96997370  0.26527448  0.08371320    -0.75600
Al49       Al  0.01010586  0.32953786  0.08330467     1.49000
C50         C  0.97605206  0.23451378  0.06902205     0.91700
O51         O  0.10458148  0.28120946  0.06691157    -0.81900
O52         O  0.15263801  0.38158066  0.10896339    -0.75400
Al53       Al  0.06459551  0.28219065  0.10661603     1.90100
O54         O  0.12986317  0.34509363  0.03205862    -0.74500
O55         O  0.10291537  0.42113815  0.10214584    -0.74300
O56         O  0.08205594  0.38602135  0.02111113    -0.80000
O57         O  0.03299905  0.39375794  0.08235557    -0.78200
O58         O  0.06328779  0.33037051  0.08593042    -1.14300
O59         O  0.00792116  0.33099228  0.14084163    -0.73500
C60         C  0.01118553  0.30232504  0.16379190     0.97200
C61         C  0.12687081  0.30633925  0.03722897     0.93600
Al62       Al  0.11293007  0.37966060  0.06753822     1.55600
O63         O  0.01537761  0.23889166  0.07116183    -0.78200
C64         C  0.06711426  0.42419428  0.10112780     0.97700
C65         C  0.15041298  0.35677961  0.13868045     0.92600
O66         O  0.11482582  0.31797779  0.14394209    -0.83500
O67         O  0.42419126  0.31967202  0.90349612    -0.82900
C68         C  0.23991287  0.26613101  0.93341046     0.96400
O69         O  0.27040151  0.30229521  0.91701489    -0.72100
O70         O  0.33324208  0.32697134  0.97512765    -0.75600
Al71       Al  0.33455854  0.32597929  0.91721471     1.49000
C72         C  0.36244204  0.32399164  0.99745197     0.91700
O73         O  0.34530858  0.22116359  0.97600492    -0.81900
O74         O  0.32134059  0.20898311  0.86121183    -0.75400
Al75       Al  0.38155147  0.27080191  0.93895515     1.90100
O76         O  0.28474306  0.18206842  0.93750000    -0.74500
O77         O  0.27811899  0.25581669  0.85423838    -0.74300
O78         O  0.24409081  0.23086167  0.93363469    -0.80000
O79         O  0.33615328  0.32633752  0.85906266    -0.78200
O80         O  0.33399044  0.27270489  0.91827232    -1.14300
O81         O  0.39865324  0.36581392  0.91736875    -0.73500
C82         C  0.42893358  0.35930035  0.90230588     0.97200
C83         C  0.30816047  0.18472502  0.96840193     0.93600
Al84       Al  0.28577659  0.22336321  0.89822837     1.55600
O85         O  0.38902575  0.31105693  0.98314975    -0.78200
C86         C  0.30690623  0.29336466  0.83759893     0.97700
C87         C  0.35819281  0.20900507  0.86880085     0.92600
O88         O  0.38199397  0.22982195  0.89962565    -0.83500
O89         O  0.91973626  0.30856896  0.47898909    -0.82900
C90         C  0.98680801  0.28832057  0.33664352     0.96400
O91         O  0.99169689  0.32133066  0.35860317    -0.72100
O92         O  0.96834831  0.36232832  0.41430564    -0.75600
Al93       Al  0.98989956  0.31982546  0.41633871     1.49000
C94         C  0.93239701  0.35750126  0.39822294     0.91700
O95         O  0.84596376  0.22953180  0.39453302    -0.81900
O96         O  0.88942103  0.17657741  0.43441425    -0.75400
Al97       Al  0.88724188  0.26894569  0.43437426     1.90100
O98         O  0.88402954  0.20618444  0.35737138    -0.74500
O99         O  0.97906479  0.22131518  0.43207281    -0.74300
O100        O  0.97374127  0.24890619  0.35180529    -0.80000
O101        O  0.02757044  0.29287336  0.41825172    -0.78200
O102        O  0.93578864  0.26809914  0.41540101    -1.14300
O103        O  0.98977459  0.32014601  0.47451675    -0.73500
C104        C  0.95772094  0.31879964  0.49558123     0.97200
C105        C  0.84828014  0.20840127  0.36389366     0.93600
Al106      Al  0.93205333  0.21736196  0.39548998     1.55600
O107        O  0.89662571  0.31860900  0.39847940    -0.78200
C108        C  0.01916352  0.25524566  0.43361049     0.97700
C109        C  0.86998443  0.18125735  0.46535620     0.92600
O110        O  0.87103003  0.21882454  0.47155978    -0.83500
O111        O  0.43967882  0.34519574  0.26709752    -0.82900
C112        C  0.30809511  0.39873235  0.23814139     0.96400
O113        O  0.30283256  0.36207788  0.25311560    -0.72100
O114        O  0.34153035  0.33921343  0.19458233    -0.75600
Al115      Al  0.34356443  0.33871009  0.25248493     1.49000
C116        C  0.37375074  0.34317209  0.17209549     0.91700
O117        O  0.45835139  0.44328766  0.19440559    -0.81900
O118        O  0.44823881  0.45524585  0.30903926    -0.75400
Al119      Al  0.44554665  0.39381303  0.23141531     1.90100
O120        O  0.43730355  0.48283111  0.23233055    -0.74500
O121        O  0.35865225  0.40831073  0.31722010    -0.74300
O122        O  0.34750286  0.43401852  0.23805806    -0.80000
O123        O  0.34397541  0.33703824  0.31031130    -0.78200
O124        O  0.39624663  0.39197393  0.25219203    -1.14300
O125        O  0.36828450  0.29898910  0.25214615    -0.73500
C126        C  0.40478858  0.30569168  0.26851326     0.97200
C127        C  0.45747083  0.47983364  0.20118101     0.93600
Al128      Al  0.39769965  0.44122161  0.27256804     1.55600
O129        O  0.41233974  0.35332201  0.18735838    -0.78200
C130        C  0.34684481  0.36913848  0.33241357     0.97700
C131        C  0.48460773  0.45432599  0.30187472     0.92600
O132        O  0.48768195  0.43468327  0.27036433    -0.83500
O133        O  0.05149146  0.40815904  0.81436940    -0.82900
C134        C  0.96644787  0.34670609  0.67055453     0.96400
O135        O  0.99465244  0.34129587  0.69228847    -0.72100
O136        O  0.05650053  0.36036980  0.75070004    -0.75600
Al137      Al  0.99349406  0.33995926  0.75012161     1.49000
C138        C  0.08798700  0.39543760  0.73409707     0.91700
O139        O  0.04958924  0.48450277  0.73024993    -0.81900
O140        O  0.94918622  0.43684187  0.77544181    -0.75400
Al141      Al  0.04640901  0.44242777  0.77014248     1.90100
O142        O  0.98421607  0.44989051  0.69773233    -0.74500
O143        O  0.90615554  0.34783502  0.76731328    -0.74300
O144        O  0.94114998  0.36075289  0.68606042    -0.80000
O145        O  0.92940513  0.30135482  0.74868602    -0.78200
O146        O  0.99624157  0.39443063  0.75107808    -1.14300
O147        O  0.99279328  0.33762257  0.80845577    -0.73500
C148        C  0.02421055  0.36912861  0.82989014     0.97200
C149        C  0.02393779  0.48412534  0.70214260     0.93600
Al150      Al  0.94872845  0.39826712  0.73298978     1.55600
O151        O  0.08617425  0.43199299  0.73435318    -0.78200
C152        C  0.90062050  0.30796041  0.76643280     0.97700
C153        C  0.97582576  0.45867686  0.80452919     0.92600
O154        O  0.01412888  0.46053267  0.80757059    -0.83500
O155        O  0.38932439  0.07592277  0.48416473    -0.82900
C156        C  0.30563197  0.00989719  0.33922096     0.96400
O157        O  0.33529574  0.00673135  0.36062084    -0.72100
O158        O  0.39778843  0.02889158  0.41896831    -0.75600
Al159      Al  0.33428430  0.00629574  0.41866347     1.49000
C160        C  0.42867686  0.06480005  0.40284047     0.91700
O161        O  0.38612222  0.15049844  0.39805743    -0.81900
O162        O  0.28714706  0.10213435  0.43802445    -0.75400
Al163      Al  0.38381876  0.10913735  0.43891975     1.90100
O164        O  0.32357674  0.11137984  0.36185501    -0.74500
O165        O  0.24528321  0.01286386  0.43485846    -0.74300
O166        O  0.27888328  0.02152207  0.35532766    -0.80000
O167        O  0.27028909  0.96692791  0.41866672    -0.78200
O168        O  0.33529621  0.05985115  0.41899336    -1.14300
O169        O  0.33317516  0.00416048  0.47632330    -0.73500
C170        C  0.36265504  0.03612249  0.49847857     0.97200
C171        C  0.36205889  0.14715646  0.36722034     0.93600
Al172      Al  0.28749878  0.06179702  0.39907454     1.55600
O173        O  0.42591561  0.10082836  0.40422810    -0.78200
C174        C  0.24035475  0.97311733  0.43493990     0.97700
C175        C  0.31079322  0.12342322  0.46846557     0.92600
O176        O  0.34859270  0.12504318  0.47518682    -0.83500
O177        O  0.31179596  0.41552746  0.60077775    -0.82900
C178        C  0.25986948  0.23082950  0.56946481     0.96400
O179        O  0.29500237  0.26234233  0.58566242    -0.72100
O180        O  0.31462887  0.32345884  0.52650230    -0.75600
Al181      Al  0.31626917  0.32568596  0.58386751     1.49000
C182        C  0.31117576  0.35290747  0.50484960     0.91700
O183        O  0.20839805  0.33679470  0.53064349    -0.81900
O184        O  0.19705466  0.30789505  0.64071228    -0.75400
Al185      Al  0.26035687  0.37240650  0.56612753     1.90100
O186        O  0.17262163  0.27147562  0.56403569    -0.74500
O187        O  0.24814697  0.26994592  0.64930369    -0.74300
O188        O  0.22379134  0.23334257  0.56913324    -0.80000
O189        O  0.31896359  0.32779042  0.64119878    -0.78200
O190        O  0.26266210  0.32411396  0.58471596    -1.14300
O191        O  0.35569816  0.38973295  0.58179786    -0.73500
C192        C  0.35114860  0.41970169  0.60006458     0.97200
C193        C  0.17374054  0.29723345  0.53549944     0.93600
Al194      Al  0.21423806  0.27444648  0.60427489     1.55600
O195        O  0.29768259  0.37896260  0.51970160    -0.78200
C196        C  0.28762630  0.29758675  0.66350341     0.97700
C197        C  0.20017697  0.34678496  0.63713228     0.92600
O198        O  0.22241436  0.37295858  0.60793412    -0.83500
O199        O  0.10172891  0.68188966  0.60379847    -0.82900
C200        C  0.97362979  0.73843964  0.56884129     0.96400
O201        O  0.96732100  0.70184924  0.58476313    -0.72100
O202        O  0.00776735  0.67887865  0.52796833    -0.75600
Al203      Al  0.00751671  0.67804369  0.58545890     1.49000
C204        C  0.03996731  0.68019098  0.50722558     0.91700
O205        O  0.12585955  0.78294679  0.53245094    -0.81900
O206        O  0.11066468  0.79436215  0.64543705    -0.75400
Al207      Al  0.11039093  0.73235962  0.56868059     1.90100
O208        O  0.10230259  0.82204351  0.56808250    -0.74500
O209        O  0.02029333  0.74644078  0.65127584    -0.74300
O210        O  0.01279802  0.77378565  0.57084751    -0.80000
O211        O  0.00562024  0.67502152  0.64246624    -0.78200
O212        O  0.06047014  0.73097008  0.58718524    -1.14300
O213        O  0.03096741  0.63768526  0.58598138    -0.73500
C214        C  0.06644905  0.64252710  0.60277744     0.97200
C215        C  0.12408134  0.81917906  0.53815382     0.93600
Al216      Al  0.06129537  0.78022016  0.60735159     1.55600
O217        O  0.07914653  0.69337391  0.52280689    -0.78200
C218        C  0.00750583  0.70636256  0.66480411     0.97700
C219        C  0.14701857  0.79281849  0.64016368     0.92600
O220        O  0.15064533  0.77196232  0.60973944    -0.83500
O221        O  0.75286941  0.98352115  0.56731315    -0.82900
C222        C  0.56900627  0.92996266  0.60033712     0.96400
O223        O  0.59956391  0.96546586  0.58337924    -0.72100
O224        O  0.66288523  0.98962392  0.64095555    -0.75600
Al225      Al  0.66336151  0.98856641  0.58329014     1.49000
C226        C  0.69259490  0.98713753  0.66291595     0.91700
O227        O  0.67714075  0.88323007  0.63996699    -0.81900
O228        O  0.64869426  0.86978862  0.52803579    -0.75400
Al229      Al  0.71149222  0.93407460  0.60324878     1.90100
O230        O  0.61352807  0.84486579  0.60503613    -0.74500
O231        O  0.60688094  0.91762765  0.52031037    -0.74300
O232        O  0.57273884  0.89435681  0.60086018    -0.80000
O233        O  0.66396937  0.98903237  0.52537266    -0.78200
O234        O  0.66293902  0.93524570  0.58407052    -1.14300
O235        O  0.72716879  0.02874517  0.58317549    -0.73500
C236        C  0.75651341  0.02261221  0.56573781     0.97200
C237        C  0.63924364  0.84698829  0.63387715     0.93600
Al238      Al  0.61415377  0.88564212  0.56512785     1.55600
O239        O  0.71856906  0.97339406  0.64847618    -0.78200
C240        C  0.63396941  0.95618035  0.50423323     0.97700
C241        C  0.68719556  0.87243388  0.53322832     0.92600
O242        O  0.71218816  0.89475407  0.56282861    -0.83500
O243        O  0.91203412  0.56771727  0.26675028    -0.82900
C244        C  0.09656373  0.69423873  0.23801351     0.96400
O245        O  0.06787195  0.69955811  0.25754118    -0.72100
O246        O  0.00806787  0.66415516  0.19564110    -0.75600
Al247      Al  0.00389470  0.66026873  0.25349863     1.49000
C248        C  0.97943030  0.63262458  0.17242923     0.91700
O249        O  0.98675687  0.54164860  0.19558754    -0.81900
O250        O  0.01440075  0.55096670  0.30540447    -0.75400
Al251      Al  0.95316530  0.55859408  0.23183075     1.90100
O252        O  0.05135067  0.56544137  0.22816660    -0.74500
O253        O  0.05517484  0.63987708  0.31825334    -0.74300
O254        O  0.09236853  0.65486002  0.23714906    -0.80000
O255        O  0.99965820  0.65632415  0.31099467    -0.78200
O256        O  0.00225208  0.60639172  0.25209585    -1.14300
O257        O  0.94042409  0.63912160  0.25027295    -0.73500
C258        C  0.90912745  0.60363344  0.26652326     0.97200
C259        C  0.02484958  0.54329801  0.19902234     0.93600
Al260      Al  0.04991672  0.60335535  0.27088404     1.55600
O261        O  0.94968029  0.59377454  0.18692745    -0.78200
C262        C  0.02698224  0.65051107  0.33358675     0.97700
C263        C  0.97499526  0.51651258  0.30018174     0.92600
O264        O  0.94948373  0.51619011  0.27184710    -0.83500
O265        O  0.69030340  0.61070842  0.47959101    -0.82900
C266        C  0.70928933  0.69721345  0.33563541     0.96400
O267        O  0.67663453  0.66609950  0.35621416    -0.72100
O268        O  0.63639898  0.60096931  0.41278108    -0.75600
Al269      Al  0.67547141  0.66563760  0.41394255     1.49000
C270        C  0.64401184  0.57144560  0.39744420     0.91700
O271        O  0.77273048  0.62032742  0.39706474    -0.81900
O272        O  0.81874296  0.71887737  0.43938597    -0.75400
Al273      Al  0.73130803  0.61947755  0.43594428     1.90100
O274        O  0.79661095  0.68375229  0.36185631    -0.74500
O275        O  0.76809859  0.75765589  0.43248235    -0.74300
O276        O  0.74771249  0.72422243  0.35181752    -0.80000
O277        O  0.69718278  0.72940224  0.41446704    -0.78200
O278        O  0.72925110  0.66746414  0.41588277    -1.14300
O279        O  0.67304411  0.66567801  0.47162277    -0.73500
C280        C  0.67655040  0.63668008  0.49385039     0.97200
C281        C  0.79526301  0.64586696  0.36772259     0.93600
Al282      Al  0.77878438  0.71725219  0.39782385     1.55600
O283        O  0.68371552  0.57690670  0.39948297    -0.78200
C284        C  0.73219651  0.76052940  0.43141356     0.97700
C285        C  0.81533294  0.69383088  0.46948790     0.92600
O286        O  0.77983626  0.65498345  0.47399986    -0.83500
O287        O  0.64123616  0.58479251  0.68323412    -0.82900
C288        C  0.62359242  0.64721735  0.82824614     0.96400
O289        O  0.65631816  0.65207944  0.80584128    -0.72100
O290        O  0.69643395  0.63234577  0.74579853    -0.75600
Al291      Al  0.65482388  0.65383047  0.74798169     1.49000
C292        C  0.69403681  0.59832867  0.76342771     0.91700
O293        O  0.56596079  0.51064116  0.76989925    -0.81900
O294        O  0.51231618  0.55873573  0.72554775    -0.75400
Al295      Al  0.60355348  0.55135985  0.72886610     1.90100
O296        O  0.53722458  0.54709616  0.80259698    -0.74500
O297        O  0.56049535  0.64814164  0.73155215    -0.74300
O298        O  0.58476483  0.63643904  0.81274866    -0.80000
O299        O  0.63050061  0.69354001  0.75021101    -0.78200
O300        O  0.60275829  0.60008230  0.74777583    -1.14300
O301        O  0.65400672  0.65576524  0.68997887    -0.73500
C302        C  0.65163180  0.62369294  0.66789251     1.02600
C303        C  0.54198160  0.51238060  0.79837685     0.93600
Al304      Al  0.55267409  0.59797303  0.76667861     1.55600
O305        O  0.65562670  0.56165352  0.76395713    -0.78200
C306        C  0.59523258  0.68775470  0.73240249     0.97700
C307        C  0.51520050  0.53572388  0.69660611     0.92600
O308        O  0.55125309  0.53313325  0.69273536    -0.83500
O309        O  0.76709794  0.01108458  0.93209983    -0.82900
C310        C  0.64405887  0.07507573  0.90148988     0.96400
O311        O  0.63676671  0.03841949  0.91793225    -0.72100
O312        O  0.67432054  0.01397402  0.85896500    -0.75600
Al313      Al  0.67499788  0.01224227  0.91691675     1.49000
C314        C  0.70626317  0.01667359  0.83675445     0.91700
O315        O  0.79576877  0.11455066  0.86219814    -0.81900
O316        O  0.78227630  0.12622257  0.97471608    -0.75400
Al317      Al  0.77778144  0.06273604  0.89807463     1.90100
O318        O  0.77345694  0.15436450  0.89837611    -0.74500
O319        O  0.69297915  0.08238268  0.98180661    -0.74300
O320        O  0.68415802  0.10924234  0.90181907    -0.80000
O321        O  0.67444915  0.00973840  0.97481271    -0.78200
O322        O  0.72937262  0.06374009  0.91765254    -1.14300
O323        O  0.69559009  0.96940429  0.91585629    -0.73500
C324        C  0.73071935  0.97268474  0.93212982     0.97200
C325        C  0.79499608  0.15115827  0.86858171     0.93600
Al326      Al  0.73283526  0.11408807  0.93762522     1.55600
O327        O  0.74439561  0.02549088  0.85233225    -0.78200
C328        C  0.67883611  0.04273607  0.99672271     0.97700
C329        C  0.81696074  0.12154946  0.97010362     0.92600
O330        O  0.81945469  0.10012766  0.93956208    -0.83500
O331        O  0.56241385  0.90566335  0.23211915    -0.82900
C332        C  0.69146261  0.09100241  0.26633032     0.96400
O333        O  0.69720799  0.06040604  0.25075211    -0.72100
O334        O  0.65771024  0.99571193  0.30742134    -0.75600
Al335      Al  0.65677826  0.99614814  0.24977333     1.49000
C336        C  0.62530078  0.96587570  0.32897179     0.91700
O337        O  0.53841598  0.97997990  0.30637599    -0.81900
O338        O  0.55228654  0.01147495  0.19552164    -0.75400
Al339      Al  0.55411216  0.94640172  0.26845958     1.90100
O340        O  0.56312279  0.04486130  0.27344382    -0.74500
O341        O  0.64142438  0.05290351  0.18689664    -0.74300
O342        O  0.65194342  0.08599490  0.26727706    -0.80000
O343        O  0.65710088  0.99674686  0.19224626    -0.78200
O344        O  0.60366278  0.99582472  0.25011853    -1.14300
O345        O  0.63350917  0.93192740  0.24851357    -0.73500
C346        C  0.59748409  0.90135582  0.23228839     0.97200
C347        C  0.54122748  0.01876679  0.30286139     0.93600
Al348      Al  0.60242800  0.04492673  0.23219945     1.55600
O349        O  0.58670216  0.93831543  0.31297453    -0.78200
C350        C  0.65361027  0.02631168  0.17090346     0.97700
C351        C  0.51629010  0.97302694  0.19941851     0.92600
O352        O  0.51299608  0.94640921  0.22823242    -0.83500
O353        O  0.98797630  0.76168589  0.93005110    -0.82900
C354        C  0.93570866  0.57669969  0.90454458     0.96400
O355        O  0.97138371  0.60768093  0.92091071    -0.72100
O356        O  0.99090762  0.66699096  0.86012376    -0.75600
Al357      Al  0.99386045  0.67186318  0.91756793     1.49000
C358        C  0.98564144  0.69435079  0.83707693     0.91700
O359        O  0.88733020  0.68069577  0.86133586    -0.81900
O360        O  0.87599432  0.65885420  0.97392196    -0.75400
Al361      Al  0.93800036  0.71800387  0.89647183     1.90100
O362        O  0.84915682  0.61815616  0.89776502    -0.74500
O363        O  0.92616327  0.61988687  0.98481387    -0.74300
O364        O  0.89996288  0.57975376  0.90567952    -0.80000
O365        O  0.99758005  0.67630324  0.97533477    -0.78200
O366        O  0.94038747  0.67088295  0.91788798    -1.14300
O367        O  0.03367830  0.73650874  0.91386077    -0.73500
C368        C  0.02759678  0.76678718  0.92977469     0.97200
C369        C  0.85190052  0.64188546  0.86674571     0.93600
Al370      Al  0.89171323  0.62277532  0.93904555     1.55600
O371        O  0.97599328  0.72344201  0.85140649    -0.78200
C372        C  0.96619297  0.64718850  0.99834757     0.97700
C373        C  0.87824579  0.69699812  0.96705527     0.92600
O374        O  0.89955894  0.72058128  0.93644010    -0.83500
O375        O  0.72425063  0.74810528  0.14488458    -0.82900
C376        C  0.63710448  0.67200246  0.00288989     0.96400
O377        O  0.66798801  0.67152849  0.02470738    -0.72100
O378        O  0.73300805  0.70074712  0.08106982    -0.75600
Al379      Al  0.66887175  0.67441502  0.08256977     1.49000
C380        C  0.76276682  0.73762388  0.06531227     0.91700
O381        O  0.71170423  0.81596925  0.05829009    -0.81900
O382        O  0.61397196  0.76402981  0.10103295    -0.75400
Al383      Al  0.71374600  0.77752777  0.09938761     1.90100
O384        O  0.64904971  0.77367586  0.02356873    -0.74500
O385        O  0.57614489  0.67467112  0.09788352    -0.74300
O386        O  0.60993574  0.68404345  0.01747230    -0.80000
O387        O  0.60544504  0.63167369  0.08480844    -0.78200
O388        O  0.66626439  0.72600878  0.08106254    -1.14300
O389        O  0.66976079  0.67566421  0.14020816    -0.73500
C390        C  0.69863848  0.70923775  0.16125576     0.97200
C391        C  0.68641306  0.81079382  0.02799706     0.93600
Al392      Al  0.61624542  0.72414215  0.06155620     1.55600
O393        O  0.75663864  0.77164274  0.06441761    -0.78200
C394        C  0.57368702  0.63605427  0.09948393     0.97700
C395        C  0.63859426  0.78700217  0.13066464     0.92600
O396        O  0.67759767  0.79104312  0.13600669    -0.83500
C397        C  0.81585693  0.75770154  0.00658839    -0.10300
C398        C  0.80204491  0.73764924  0.04539480     0.05900
C399        C  0.81868036  0.70920860  0.06024944    -0.04100
C400        C  0.84457334  0.69759252  0.03481260    -0.08500
C401        C  0.85516807  0.71438689  0.99451273     0.05000
C402        C  0.84211759  0.74650585  0.98110357    -0.03500
Br403      Br  0.85432896  0.77344637  0.92718105    -0.03200
H404        H  0.80320046  0.77935461  0.99471642     0.08900
H405        H  0.85558712  0.67448918  0.04637042     0.06900
Br406      Br  0.80625726  0.68433581  0.11492991    -0.03700
C407        C  0.64073625  0.82239549  0.19839511    -0.10300
C408        C  0.62173822  0.81010227  0.15893178     0.05900
C409        C  0.58818831  0.82170706  0.14714567    -0.04100
C410        C  0.57755113  0.84811619  0.17317570    -0.08500
C411        C  0.59930450  0.86329401  0.21117889     0.05000
C412        C  0.62947542  0.84814911  0.22452344    -0.03500
Br413      Br  0.65627478  0.86130929  0.27837971    -0.03200
H414        H  0.66504209  0.81249061  0.20887972     0.08900
H415        H  0.55439367  0.85939868  0.16241219     0.06900
Br416      Br  0.55795189  0.80662687  0.09477491    -0.03700
C417        C  0.69040137  0.88785239  0.93960359    -0.10300
C418        C  0.72646001  0.93093454  0.95214998     0.05900
C419        C  0.75200033  0.93281601  0.98705463    -0.04100
C420        C  0.73937786  0.89284663  0.00980985    -0.08500
C421        C  0.70115613  0.85022806  0.99902548     0.05000
C422        C  0.67756943  0.84786062  0.96241858    -0.03500
Br423      Br  0.62701468  0.79204084  0.94169064    -0.03200
H424        H  0.67068982  0.88543909  0.91249435     0.08900
H425        H  0.75867192  0.89585155  0.03735047     0.06900
Br426      Br  0.80150503  0.98915839  0.00795875    -0.03700
C427        C  0.65558768  0.06244433  0.10488508    -0.10300
C428        C  0.66216774  0.03001397  0.12647276     0.05900
C429        C  0.67310125  0.00066168  0.10447588    -0.04100
C430        C  0.67650327  0.00416922  0.06185396    -0.08500
C431        C  0.66941671  0.03641429  0.04066082     0.05000
C432        C  0.65847151  0.06555933  0.06260903    -0.03500
Br433      Br  0.64507207  0.10946876  0.03756673    -0.03200
H434        H  0.64701629  0.08529279  0.12078467     0.08900
H435        H  0.68598312  0.98236352  0.04527594     0.06900
Br436      Br  0.68477609  0.95566378  0.12949610    -0.03700
C437        C  0.73422852  0.57248002  0.81357006    -0.10300
C438        C  0.73638723  0.60470085  0.78471807     0.05900
C439        C  0.77899660  0.64613842  0.78007315    -0.04100
C440        C  0.81560844  0.65604995  0.80620338    -0.08500
C441        C  0.81267297  0.62559038  0.83704564     0.05000
C442        C  0.77190287  0.58210512  0.83909365    -0.03500
Br443      Br  0.76498902  0.53379399  0.87517674    -0.03200
H444        H  0.70269303  0.54009334  0.81715420     0.08900
H445        H  0.84668946  0.68885294  0.80264128     0.06900
Br446      Br  0.79155728  0.69255988  0.73922123    -0.03700
C447        C  0.58895176  0.63458112  0.89688897    -0.10300
C448        C  0.62901504  0.65253902  0.87322127     0.05900
C449        C  0.67188878  0.67305193  0.89345543    -0.04100
C450        C  0.67357936  0.67664576  0.93619657    -0.08500
C451        C  0.63343907  0.66052867  0.95925567     0.05000
C452        C  0.59076827  0.63841187  0.93932230    -0.03500
Br453      Br  0.53355679  0.61167313  0.96817926    -0.03200
H454        H  0.55557181  0.61720377  0.88239773     0.08900
H455        H  0.70661116  0.69403475  0.95135613     0.06900
Br456      Br  0.72956717  0.69909722  0.86544765    -0.03700
C457        C  0.68336070  0.67407215  0.56034421    -0.10300
C458        C  0.66630550  0.63358796  0.53747222     0.05900
C459        C  0.64499931  0.59091373  0.55743913    -0.04100
C460        C  0.64187828  0.58924247  0.59979886    -0.08500
C461        C  0.65888576  0.62943852  0.62324826     0.05000
C462        C  0.68013065  0.67244399  0.60310808    -0.03500
Br463      Br  0.70853332  0.73002178  0.63154716    -0.03200
H464        H  0.70102988  0.70709815  0.54502858     0.08900
H465        H  0.62567088  0.55589304  0.61437285     0.06900
Br466      Br  0.61827410  0.53357219  0.52848459    -0.03700
C467        C  0.72454423  0.74529686  0.22895663    -0.10300
C468        C  0.70174320  0.70476117  0.20581602     0.05900
C469        C  0.68025721  0.66199343  0.22623332    -0.04100
C470        C  0.68037190  0.66078631  0.26889544    -0.08500
C471        C  0.70395464  0.70116828  0.29166724     0.05000
C472        C  0.72630286  0.74383658  0.27144489    -0.03500
Br473      Br  0.75830138  0.80144529  0.29983483    -0.03200
H474        H  0.74084974  0.77857575  0.21410806     0.08900
H475        H  0.66364350  0.62802289  0.28432470     0.06900
Br476      Br  0.65327882  0.60387893  0.19865109    -0.03700
C477        C  0.85928048  0.58725950  0.32715058    -0.10300
C478        C  0.87247615  0.60709342  0.28816642     0.05900
C479        C  0.85766818  0.63753434  0.27461412    -0.04100
C480        C  0.83168273  0.64871802  0.30045492    -0.08500
C481        C  0.82043643  0.63078554  0.34036475     0.05000
C482        C  0.83434920  0.59930232  0.35349146    -0.03500
Br483      Br  0.82611447  0.57548063  0.40846201    -0.03200
H484        H  0.87160843  0.56512797  0.33851583     0.08900
H485        H  0.82100968  0.67231937  0.28949361     0.06900
Br486      Br  0.87255036  0.66580432  0.22130098    -0.03700
C487        C  0.00023061  0.68444785  0.06493968    -0.10300
C488        C  0.97536715  0.64427440  0.04181718     0.05900
C489        C  0.95578592  0.60137639  0.06137596    -0.04100
C490        C  0.95773951  0.59914243  0.10368271    -0.08500
C491        C  0.98025223  0.63902211  0.12757840     0.05000
C492        C  0.00330281  0.68219170  0.10768503    -0.03500
Br493      Br  0.03804187  0.73903431  0.13652669    -0.03200
H494        H  0.01596535  0.71766453  0.04990048     0.08900
H495        H  0.94156011  0.56553618  0.11787005     0.06900
Br496      Br  0.92760294  0.54441591  0.03183591    -0.03700
C497        C  0.68383803  0.83522401  0.46598201    -0.10300
C498        C  0.70355005  0.84874361  0.50506793     0.05900
C499        C  0.73813354  0.83841648  0.51662312    -0.04100
C500        C  0.74992001  0.81310376  0.49043997    -0.08500
C501        C  0.72808995  0.79723465  0.45263298     0.05000
C502        C  0.69592514  0.81009196  0.43981399    -0.03500
Br503      Br  0.66726740  0.79450881  0.38673512    -0.03200
H504        H  0.65841931  0.84375505  0.45579849     0.08900
H505        H  0.77422499  0.80318910  0.50096983     0.06900
Br506      Br  0.76867072  0.85367437  0.56889150    -0.03700
C507        C  0.63438109  0.81042942  0.70189150    -0.10300
C508        C  0.62438317  0.80560056  0.65985098     0.05900
C509        C  0.60025094  0.76082179  0.64305489    -0.04100
C510        C  0.58693827  0.72235110  0.66822893    -0.08500
C511        C  0.59802439  0.72732493  0.70999423     0.05000
C512        C  0.62149659  0.77187109  0.72687212    -0.03500
Br513      Br  0.63709106  0.78190030  0.78401695    -0.03200
H514        H  0.65250635  0.84429927  0.71533740     0.08900
H515        H  0.57085468  0.68860318  0.65449930     0.06900
Br516      Br  0.58910364  0.74953398  0.58523747    -0.03700
C517        C  0.59102512  0.93315260  0.39577546    -0.10300
C518        C  0.63041008  0.96348155  0.37369051     0.05900
C519        C  0.67107363  0.99272616  0.39543599    -0.04100
C520        C  0.67088890  0.99135641  0.43825001    -0.08500
C521        C  0.63113551  0.96118514  0.45989777     0.05000
C522        C  0.59069679  0.93229202  0.43819396    -0.03500
Br523      Br  0.53270782  0.89218450  0.46384936    -0.03200
H524        H  0.55931119  0.91049867  0.38011747     0.08900
H525        H  0.70233868  0.01316096  0.45465413     0.06900
Br526      Br  0.72841960  0.03431160  0.36975935    -0.03700
C527        C  0.65666017  0.98664913  0.72883607    -0.10300
C528        C  0.69654922  0.99917359  0.70634947     0.05900
C529        C  0.73909507  0.02003261  0.72638882    -0.04100
C530        C  0.74086174  0.02533960  0.76863675    -0.08500
C531        C  0.70087247  0.01068836  0.79188755     0.05000
C532        C  0.65835656  0.99239779  0.77132839    -0.03500
Br533      Br  0.60114681  0.97318348  0.79846520    -0.03200
H534        H  0.62378229  0.97092858  0.71345017     0.08900
H535        H  0.77414398  0.04143518  0.78325533     0.06900
Br536      Br  0.79626375  0.04408284  0.69776074    -0.03700
C537        C  0.89017586  0.70824502  0.56275507    -0.10300
C538        C  0.93431720  0.73678520  0.54679565     0.05900
C539        C  0.93849633  0.75417545  0.50671655    -0.04100
C540        C  0.89916508  0.74108491  0.48296118    -0.08500
C541        C  0.85504274  0.71021584  0.49803226     0.05000
C542        C  0.85083601  0.69491826  0.53899734    -0.03500
Br543      Br  0.79274336  0.65583708  0.56450993    -0.03200
H544        H  0.88631595  0.69449165  0.59353662     0.08900
H545        H  0.90342827  0.75337857  0.45160935     0.06900
Br546      Br  0.99688380  0.79121902  0.48103023    -0.03700
C547        C  0.00521450  0.67962976  0.44064740    -0.10300
C548        C  0.03242518  0.66745371  0.46396126     0.05900
C549        C  0.05413540  0.64613432  0.44491816    -0.04100
C550        C  0.05128494  0.64071691  0.40260055    -0.08500
C551        C  0.02659949  0.65570854  0.37848855     0.05000
C552        C  0.00184001  0.67385126  0.39824720    -0.03500
Br553      Br  0.96369066  0.69284748  0.37048486    -0.03200
H554        H  0.98764969  0.69523479  0.45533843     0.08900
H555        H  0.06864335  0.62454911  0.38858903     0.06900
Br556      Br  0.08641341  0.62183548  0.47500997    -0.03700
C557        C  0.02228608  0.68260897  0.73108451    -0.10300
C558        C  0.99680091  0.69693415  0.70777245     0.05900
C559        C  0.96508370  0.70615766  0.72645822    -0.04100
C560        C  0.96121715  0.70364020  0.76879005    -0.08500
C561        C  0.98892732  0.69234303  0.79271414     0.05000
C562        C  0.01874242  0.68033543  0.77359216    -0.03500
Br563      Br  0.05828859  0.66470052  0.80328877    -0.03200
H564        H  0.04681402  0.67557722  0.71629085     0.08900
H565        H  0.93682532  0.71118950  0.78309539     0.06900
Br566      Br  0.92612571  0.72157348  0.69545339    -0.03700
C567        C  0.43558511  0.46233502  0.60933129    -0.10300
C568        C  0.39297563  0.45691243  0.62098821     0.05900
C569        C  0.39209733  0.48148143  0.65553984    -0.04100
C570        C  0.43245400  0.50808878  0.67851877    -0.08500
C571        C  0.47453312  0.51075600  0.66835079     0.05000
C572        C  0.47545713  0.48798291  0.63245195    -0.03500
Br573      Br  0.52891947  0.48807157  0.61308239    -0.03200
H574        H  0.43775966  0.44458095  0.58261212     0.08900
H575        H  0.43027591  0.52540728  0.70553532     0.06900
Br576      Br  0.33667491  0.47784044  0.67453174    -0.03700
C577        C  0.51087658  0.07095159  0.32027561    -0.10300
C578        C  0.51757575  0.03425929  0.33204702     0.05900
C579        C  0.49986201  0.01289184  0.37026574    -0.04100
C580        C  0.47489602  0.02687458  0.39441285    -0.08500
C581        C  0.46565067  0.06136172  0.38133570     0.05000
C582        C  0.48489239  0.08417974  0.34411777    -0.03500
Br583      Br  0.47255988  0.12970977  0.32170326    -0.03200
H584        H  0.52389752  0.08811992  0.29117730     0.08900
H585        H  0.46049537  0.00882322  0.42293884     0.06900
Br586      Br  0.50651437  0.96338782  0.39146366    -0.03700
C587        C  0.18689997  0.94106358  0.49380471    -0.10300
C588        C  0.20242212  0.93365077  0.45646757     0.05900
C589        C  0.18800282  0.88803561  0.44456707    -0.04100
C590        C  0.16136802  0.85153392  0.47102675    -0.08500
C591        C  0.14831337  0.85898657  0.50971232     0.05000
C592        C  0.16039339  0.90452932  0.52052845    -0.03500
Br593      Br  0.14629004  0.92097921  0.57255140    -0.03200
H594        H  0.19817977  0.97581554  0.50365319     0.08900
H595        H  0.15168943  0.81706557  0.46151624     0.06900
Br596      Br  0.20419918  0.87292970  0.39283017    -0.03700
C597        C  0.31110390  0.15893062  0.53568191    -0.10300
C598        C  0.29313048  0.14637984  0.49598042     0.05900
C599        C  0.25822698  0.15597363  0.48355598    -0.04100
C600        C  0.24444005  0.17968943  0.50972364    -0.08500
C601        C  0.26450371  0.19449792  0.54831530     0.05000
C602        C  0.29695902  0.18233749  0.56178521    -0.03500
Br603      Br  0.32362033  0.19709913  0.61567747    -0.03200
H604        H  0.33666922  0.15089440  0.54647230     0.08900
H605        H  0.22012126  0.18933823  0.49866211     0.06900
Br606      Br  0.22965849  0.14161739  0.43034671    -0.03700
C607        C  0.86430182  0.27460759  0.83238825    -0.10300
C608        C  0.86483947  0.26927957  0.78994132     0.05900
C609        C  0.84116378  0.22467690  0.77317408    -0.04100
C610        C  0.81850075  0.18634026  0.79899224    -0.08500
C611        C  0.81950944  0.19168872  0.84164545     0.05000
C612        C  0.84263527  0.23643973  0.85827898    -0.03500
Br613      Br  0.85128242  0.24766029  0.91629570    -0.03200
H614        H  0.88430816  0.30839379  0.84578930     0.08900
H615        H  0.80037175  0.15232232  0.78575971     0.06900
Br616      Br  0.83974361  0.21447822  0.71521095    -0.03700
C617        C  0.17288490  0.40114654  0.65489255    -0.10300
C618        C  0.17655150  0.36245157  0.66593763     0.05900
C619        C  0.15597588  0.33946359  0.70290752    -0.04100
C620        C  0.13075308  0.35380637  0.72621310    -0.08500
C621        C  0.12446580  0.39042152  0.71358654     0.05000
C622        C  0.14704280  0.41500411  0.67799410    -0.03500
Br623      Br  0.14041389  0.46468456  0.65684818    -0.03200
H624        H  0.18850557  0.41979927  0.62688479     0.08900
H625        H  0.11409231  0.33462118  0.75376144     0.06900
Br626      Br  0.15944400  0.28765090  0.72346233    -0.03700
C627        C  0.02013388  0.51919295  0.63595800    -0.10300
C628        C  0.04055825  0.52477985  0.67458778     0.05900
C629        C  0.07518809  0.56947762  0.68637882    -0.04100
C630        C  0.08622352  0.60723889  0.66078201    -0.08500
C631        C  0.06353694  0.60176949  0.62339150     0.05000
C632        C  0.03143328  0.55682505  0.61038034    -0.03500
Br633      Br  0.00103700  0.54407546  0.55809534    -0.03200
H634        H  0.99456733  0.48532877  0.62573740     0.08900
H635        H  0.11048196  0.64137271  0.67146827     0.06900
Br636      Br  0.10623163  0.58304156  0.73837173    -0.03700
C637        C  0.92697614  0.49302914  0.82175708    -0.10300
C638        C  0.96183561  0.48379111  0.83374041     0.05900
C639        C  0.98312393  0.50061273  0.87214168    -0.04100
C640        C  0.97152925  0.52798745  0.89587727    -0.08500
C641        C  0.93859340  0.53932238  0.88271884     0.05000
C642        C  0.91545274  0.52047037  0.84553047    -0.03500
Br643      Br  0.87141720  0.53482963  0.82313726    -0.03200
H644        H  0.90977174  0.48058027  0.79261867     0.08900
H645        H  0.98958846  0.54178927  0.92446821     0.06900
Br646      Br  0.02818485  0.48775805  0.89450390    -0.03700
C647        C  0.37588809  0.22238041  0.27427719    -0.10300
C648        C  0.40393778  0.26652800  0.29024036     0.05900
C649        C  0.42253589  0.27081302  0.32979575    -0.04100
C650        C  0.41005621  0.23136082  0.35349751    -0.08500
C651        C  0.37896971  0.18713265  0.33865750     0.05000
C652        C  0.36364035  0.18303635  0.29776772    -0.03500
Br653      Br  0.32633075  0.12521303  0.27159852    -0.03200
H654        H  0.36181657  0.21846528  0.24366322     0.08900
H655        H  0.42295400  0.23561217  0.38457970     0.06900
Br656      Br  0.46071225  0.32944384  0.35483277    -0.03700
C657        C  0.34960346  0.40231507  0.39992521    -0.10300
C658        C  0.33741895  0.36273606  0.37668904     0.05900
C659        C  0.31865955  0.31977782  0.39683374    -0.04100
C660        C  0.31116235  0.31742281  0.43902471    -0.08500
C661        C  0.32276738  0.35711940  0.46154890     0.05000
C662        C  0.34339839  0.40001149  0.44194834    -0.03500
Br663      Br  0.36709903  0.45705412  0.47103081    -0.03200
H664        H  0.36544767  0.43593189  0.38564348     0.08900
H665        H  0.29543473  0.28426744  0.45423135     0.06900
Br666      Br  0.30171145  0.26295069  0.36962493    -0.03700
C667        C  0.56222758  0.51106043  0.39424150    -0.10300
C668        C  0.60567045  0.53255157  0.37584942     0.05900
C669        C  0.60919591  0.52325570  0.33442870    -0.04100
C670        C  0.56940384  0.49686279  0.31128312    -0.08500
C671        C  0.52556805  0.47813621  0.32893924     0.05000
C672        C  0.52256879  0.48318153  0.37149636    -0.03500
Br673      Br  0.46596281  0.45111374  0.40063596    -0.03200
H674        H  0.55905428  0.51699069  0.42637436     0.08900
H675        H  0.57282899  0.49235989  0.27888022     0.06900
Br676      Br  0.66717419  0.54848799  0.30726452    -0.03700
C677        C  0.49510324  0.51347446  0.13421956    -0.10300
C678        C  0.48137289  0.52007842  0.17295902     0.05900
C679        C  0.49300413  0.56541193  0.18425391    -0.04100
C680        C  0.51990664  0.60250038  0.15812732    -0.08500
C681        C  0.53609862  0.59590308  0.12080272     0.05000
C682        C  0.52202978  0.55058773  0.10833108    -0.03500
Br683      Br  0.53871853  0.53687440  0.05627901    -0.03200
H684        H  0.48577327  0.47926528  0.12423806     0.08900
H685        H  0.53071250  0.63699863  0.16832178     0.06900
Br686      Br  0.47727589  0.58095487  0.23598385    -0.03700
C687        C  0.91874500  0.39208883  0.33639536    -0.10300
C688        C  0.93471081  0.39744206  0.37681294     0.05900
C689        C  0.96036340  0.44210915  0.39301555    -0.04100
C690        C  0.97233230  0.48045912  0.36799897    -0.08500
C691        C  0.95857240  0.47525580  0.32676517     0.05000
C692        C  0.93042776  0.43030913  0.31131308    -0.03500
Br693      Br  0.91080225  0.41799048  0.25507853    -0.03200
H694        H  0.89974074  0.35805326  0.32335016     0.08900
H695        H  0.99287733  0.51447309  0.38072350     0.06900
Br696      Br  0.97949372  0.45244248  0.44935859    -0.03700
C697        C  0.05038771  0.24238637  0.49774197    -0.10300
C698        C  0.05665972  0.25417320  0.45611744     0.05900
C699        C  0.10138697  0.27612509  0.43992560    -0.04100
C700        C  0.13912777  0.28933766  0.46590791    -0.08500
C701        C  0.13314140  0.28040835  0.50817869     0.05000
C702        C  0.08797258  0.25537810  0.52382010    -0.03500
Br703      Br  0.07501933  0.24307033  0.58128662    -0.03200
H704        H  0.01633517  0.22658142  0.51078567     0.08900
H705        H  0.17329825  0.30716574  0.45310759     0.06900
Br706      Br  0.11230576  0.28924420  0.38239376    -0.03700
C707        C  0.92365390  0.32171029  0.56143695    -0.10300
C708        C  0.96253857  0.32780249  0.54025524     0.05900
C709        C  0.00264428  0.33919140  0.56289071    -0.04100
C710        C  0.00276801  0.34416076  0.60546537    -0.08500
C711        C  0.96362965  0.33778561  0.62623497     0.05000
C712        C  0.92354721  0.32576765  0.60376249    -0.03500
Br713      Br  0.86619998  0.31113240  0.62856136    -0.03200
H714        H  0.89214066  0.31229696  0.54523098     0.08900
H715        H  0.03397460  0.35384985  0.62235465     0.06900
Br716      Br  0.05867961  0.34922554  0.53863333    -0.03700
C717        C  0.72515524  0.14336872  0.32514800    -0.10300
C718        C  0.73108799  0.12997430  0.28625471     0.05900
C719        C  0.77589412  0.14749504  0.27098652    -0.04100
C720        C  0.81365578  0.17442353  0.29608450    -0.08500
C721        C  0.80779583  0.18481703  0.33644692     0.05000
C722        C  0.76270785  0.17026168  0.35037069    -0.03500
Br723      Br  0.74830589  0.18075160  0.40480826    -0.03200
H724        H  0.69094436  0.12984177  0.33732877     0.08900
H725        H  0.84773683  0.18635998  0.28424948     0.06900
Br726      Br  0.78740015  0.13536467  0.21612963    -0.03700
C727        C  0.80811218  0.10613910  0.55813431    -0.10300
C728        C  0.79283018  0.06190165  0.54266802     0.05900
C729        C  0.80525558  0.05743909  0.50253793    -0.04100
C730        C  0.83126098  0.09678379  0.47851001    -0.08500
C731        C  0.84494456  0.14115610  0.49340963     0.05000
C732        C  0.83361111  0.14538575  0.53413225    -0.03500
Br733      Br  0.85102429  0.20311190  0.55946083    -0.03200
H734        H  0.79852469  0.11014872  0.58880490     0.08900
H735        H  0.83916751  0.09235799  0.44735018     0.06900
Br736      Br  0.78372452  0.99869029  0.47734501    -0.03700
C737        C  0.47837691  0.39043515  0.84112158    -0.10300
C738        C  0.46690650  0.39809315  0.88034316     0.05900
C739        C  0.48421572  0.44376103  0.89360636    -0.04100
C740        C  0.50980025  0.48039980  0.86694419    -0.08500
C741        C  0.51870805  0.47273459  0.82673457     0.05000
C742        C  0.50358476  0.42706906  0.81414687    -0.03500
Br743      Br  0.51058769  0.41118488  0.75917323    -0.03200
H744        H  0.46438472  0.35565469  0.83011421     0.08900
H745        H  0.52187989  0.51506275  0.87745023     0.06900
Br746      Br  0.47309871  0.45857745  0.94747366    -0.03700
C747        C  0.32856985  0.33534196  0.72710193    -0.10300
C748        C  0.29628869  0.29522277  0.70704831     0.05900
C749        C  0.27034423  0.25466800  0.72969858    -0.04100
C750        C  0.27469522  0.25574654  0.77187954    -0.08500
C751        C  0.30521996  0.29631260  0.79264156     0.05000
C752        C  0.33362789  0.33622529  0.76961138    -0.03500
Br753      Br  0.37956936  0.39304662  0.79309485    -0.03200
H754        H  0.34911018  0.36661528  0.70978659     0.08900
H755        H  0.25386872  0.22397221  0.78837665     0.06900
Br756      Br  0.22944258  0.19592560  0.70560466    -0.03700
C757        C  0.32443738  0.31423036  0.06413805    -0.10300
C758        C  0.36500148  0.33368310  0.04125809     0.05900
C759        C  0.40741848  0.35669195  0.06142336    -0.04100
C760        C  0.40880200  0.35931337  0.10383541    -0.08500
C761        C  0.36851333  0.33848369  0.12724719     0.05000
C762        C  0.32577458  0.31598082  0.10699207    -0.03500
Br763      Br  0.26833941  0.28406600  0.13532651    -0.03200
H764        H  0.29170278  0.29554494  0.04874134     0.08900
H765        H  0.44196610  0.37781526  0.11850563     0.06900
Br766      Br  0.46492498  0.38542309  0.03307893    -0.03700
C767        C  0.89213750  0.18217636  0.06322134    -0.10300
C768        C  0.93616303  0.19563132  0.04822398     0.05900
C769        C  0.93974829  0.17860458  0.00988481    -0.04100
C770        C  0.90030788  0.15280877  0.98586104    -0.08500
C771        C  0.85658289  0.14300944  0.99933753     0.05000
C772        C  0.85271877  0.15590278  0.03959546    -0.03500
Br773      Br  0.79491039  0.13869191  0.06462121    -0.03200
H774        H  0.88846690  0.19392080  0.09303941     0.08900
H775        H  0.90432745  0.14237408  0.95557743     0.06900
Br776      Br  0.99776878  0.19320038  0.98697828    -0.03700
C777        C  0.00789047  0.32107958  0.93845860    -0.10300
C778        C  0.03970356  0.36060285  0.95971155     0.05900
C779        C  0.06854237  0.40084264  0.93735986    -0.04100
C780        C  0.06319887  0.40153193  0.89531895    -0.08500
C781        C  0.03011467  0.36286208  0.87394872     0.05000
C782        C  0.00349401  0.32155343  0.89579307    -0.03500
Br783      Br  0.96302229  0.26416428  0.86979435    -0.03200
H784        H  0.98710996  0.28926860  0.95497638     0.08900
H785        H  0.08511421  0.43346695  0.87944124     0.06900
Br786      Br  0.11544855  0.45732702  0.96106717    -0.03700
C787        C  0.02052927  0.46092723  0.11607612    -0.10300
C788        C  0.06180350  0.46081207  0.12241633     0.05900
C789        C  0.09287295  0.49189166  0.15148191    -0.04100
C790        C  0.08095975  0.51965710  0.17466386    -0.08500
C791        C  0.03824769  0.51749130  0.16991027     0.05000
C792        C  0.00844308  0.48812541  0.13916355    -0.03500
Br793      Br  0.94918834  0.48040832  0.12739694    -0.03200
H794        H  0.99604105  0.43815724  0.09365655     0.08900
H795        H  0.10497174  0.54218321  0.19748982     0.06900
Br796      Br  0.15120713  0.49718070  0.16227531    -0.03700
C797        C  0.02920870  0.33857635  0.23125697    -0.10300
C798        C  0.00098651  0.30047722  0.20702719     0.05900
C799        C  0.96837840  0.25919760  0.22520721    -0.04100
C800        C  0.96447526  0.25632214  0.26759376    -0.08500
C801        C  0.99336055  0.29397574  0.29228291     0.05000
C802        C  0.02604915  0.33549507  0.27389083    -0.03500
Br803      Br  0.07019578  0.38709668  0.30498939    -0.03200
H804        H  0.05542682  0.36990329  0.21703740     0.08900
H805        H  0.93874965  0.22439203  0.28129286     0.06900
Br806      Br  0.92866424  0.20601149  0.19334699    -0.03700
C807        C  0.27360250  0.41743892  0.17916215    -0.10300
C808        C  0.26791970  0.39722629  0.21784520     0.05900
C809        C  0.22295310  0.36786678  0.23226074    -0.04100
C810        C  0.18516411  0.35603458  0.20664018    -0.08500
C811        C  0.19091038  0.37356255  0.16658013     0.05000
C812        C  0.23598921  0.40611010  0.15355728    -0.03500
Br813      Br  0.25051570  0.43369960  0.09990424    -0.03200
H814        H  0.30780500  0.43969214  0.16749458     0.08900
H815        H  0.15114292  0.33244430  0.21795679     0.06900
Br816      Br  0.21121459  0.34301246  0.28689807    -0.03700
C817        C  0.16271569  0.31035944  0.96943580    -0.10300
C818        C  0.14999059  0.29008158  0.00845220     0.05900
C819        C  0.16053755  0.25536010  0.01902148    -0.04100
C820        C  0.18656651  0.24498235  0.99236991    -0.08500
C821        C  0.20224594  0.26802313  0.95489286     0.05000
C822        C  0.18802487  0.29931180  0.94265137    -0.03500
Br823      Br  0.20188327  0.32806476  0.88951456    -0.03200
H824        H  0.15345428  0.33545615  0.95978897     0.08900
H825        H  0.19704798  0.22086968  0.00222502     0.06900
Br826      Br  0.14410967  0.22256165  0.07027855    -0.03700
C827        C  0.22368748  0.85286161  0.73308241    -0.10300
C828        C  0.26770191  0.87072304  0.71612518     0.05900
C829        C  0.27129694  0.86010180  0.67507923    -0.04100
C830        C  0.23161737  0.83358883  0.65174080    -0.08500
C831        C  0.18747917  0.81734592  0.66807820     0.05000
C832        C  0.18392961  0.82624752  0.70977681    -0.03500
Br833      Br  0.12609569  0.80243760  0.73697960    -0.03200
H834        H  0.22017091  0.86088899  0.76455181     0.08900
H835        H  0.23549777  0.82748477  0.61979145     0.06900
Br836      Br  0.32925575  0.88562212  0.64773858    -0.03700
C837        C  0.40863215  0.04859537  0.60501757    -0.10300
C838        C  0.36810913  0.02556252  0.62801625     0.05900
C839        C  0.32576801  0.00112327  0.60725713    -0.04100
C840        C  0.32490361  0.00274190  0.56446666    -0.08500
C841        C  0.36543885  0.02816516  0.54211781     0.05000
C842        C  0.40767152  0.04997774  0.56261621    -0.03500
Br843      Br  0.46542929  0.08132635  0.53457388    -0.03200
H844        H  0.44173790  0.06582474  0.61997805     0.08900
H845        H  0.29223696  0.98577416  0.54869017     0.06900
Br846      Br  0.26785808  0.96672563  0.63452177    -0.03700
C847        C  0.40858579  0.13550120  0.83401055    -0.10300
C848        C  0.40111040  0.13320754  0.79162282     0.05900
C849        C  0.38125557  0.15775647  0.77439392    -0.04100
C850        C  0.36796334  0.18273923  0.79962913    -0.08500
C851        C  0.37389265  0.18367152  0.84232836     0.05000
C852        C  0.39485133  0.15987194  0.85938292    -0.03500
Br853      Br  0.40051271  0.15416561  0.91750885    -0.03200
H854        H  0.42199157  0.11527993  0.84790396     0.08900
H855        H  0.35250356  0.20111954  0.78585042     0.06900
Br856      Br  0.37133666  0.15764834  0.71642482    -0.03700
C857        C  0.52230676  0.03719627  0.87062745    -0.10300
C858        C  0.52707782  0.04523245  0.82818958     0.05900
C859        C  0.57192170  0.07000134  0.81165580    -0.04100
C860        C  0.61028301  0.08444071  0.83715330    -0.08500
C861        C  0.60530632  0.07418977  0.87912406     0.05000
C862        C  0.56077755  0.05145310  0.89595516    -0.03500
Br863      Br  0.55073473  0.03819466  0.95352053    -0.03200
H864        H  0.48853273  0.01927015  0.88412657     0.08900
H865        H  0.64399218  0.10028530  0.82347636     0.06900
Br866      Br  0.58367934  0.08030527  0.75383149    -0.03700
C867        C  0.49285915  0.97696788  0.63436086    -0.10300
C868        C  0.48019246  0.95829917  0.67395476     0.05900
C869        C  0.49154414  0.92451733  0.68622996    -0.04100
C870        C  0.51697353  0.91256768  0.66020338    -0.08500
C871        C  0.53194117  0.93343389  0.62178558     0.05000
C872        C  0.51809034  0.96478136  0.60840697    -0.03500
Br873      Br  0.53273418  0.99250882  0.55482325    -0.03200
H874        H  0.48370800  0.00182822  0.62361221     0.08900
H875        H  0.52768502  0.88900641  0.67126889     0.06900
Br876      Br  0.47748656  0.89549181  0.73926733    -0.03700
C877        C  0.43235355  0.92534297  0.18460622    -0.10300
C878        C  0.47624897  0.95938274  0.17146819     0.05900
C879        C  0.47981136  0.98109573  0.13331908    -0.04100
C880        C  0.44038465  0.96991538  0.11049024    -0.08500
C881        C  0.39643505  0.93761195  0.12456288     0.05000
C882        C  0.39277713  0.91473993  0.16192980    -0.03500
Br883      Br  0.33475342  0.87274057  0.18601510    -0.03200
H884        H  0.42836846  0.90835379  0.21385224     0.08900
H885        H  0.44408954  0.98799787  0.08189691     0.06900
Br886      Br  0.53686960  0.02686134  0.11015995    -0.03700
C887        C  0.26895001  0.00889967  0.27393066    -0.10300
C888        C  0.30144569  0.00175008  0.29473406     0.05900
C889        C  0.33033448  0.99109090  0.27191739    -0.04100
C890        C  0.32630751  0.98845173  0.22930842    -0.08500
C891        C  0.29436527  0.99664454  0.20893161     0.05000
C892        C  0.26587291  0.00758174  0.23166915    -0.03500
Br893      Br  0.22389445  0.02418331  0.20771319    -0.03200
H894        H  0.24650368  0.01755300  0.29040250     0.08900
H895        H  0.34781254  0.97913725  0.21204870     0.06900
Br896      Br  0.37543904  0.97917034  0.29592054    -0.03700
C897        C  0.29780790  0.14901157  0.03756929    -0.10300
C898        C  0.29137544  0.14378304  0.99501947     0.05900
C899        C  0.26838192  0.09894923  0.97833581    -0.04100
C900        C  0.25382690  0.06082925  0.00402090    -0.08500
C901        C  0.26236241  0.06624621  0.04617889     0.05000
C902        C  0.28341953  0.11066589  0.06312653    -0.03500
Br903      Br  0.29341069  0.12043180  0.12104598    -0.03200
H904        H  0.31439566  0.18297860  0.05093128     0.08900
H905        H  0.23904167  0.02699423  0.99054359     0.06900
Br906      Br  0.26038701  0.08700129  0.92039161    -0.03700
C907        C  0.37137908  0.97109620  0.90399233    -0.10300
C908        C  0.34069933  0.97579722  0.87804145     0.05900
C909        C  0.30438591  0.97950843  0.89489487    -0.04100
C910        C  0.29912482  0.97799017  0.93738077    -0.08500
C911        C  0.32926895  0.97218219  0.96296310     0.05000
C912        C  0.36580459  0.96915946  0.94628589    -0.03500
Br913      Br  0.40895899  0.96285754  0.98020369    -0.03200
H914        H  0.39974114  0.96879205  0.89129738     0.08900
H915        H  0.27029822  0.97920531  0.95040595     0.06900
Br916      Br  0.25862616  0.98188484  0.86158896    -0.03700
C917        C  0.05939953  0.81281927  0.99235943    -0.10300
C918        C  0.06641536  0.80448094  0.95186815     0.05900
C919        C  0.11162099  0.82451138  0.93697750    -0.04100
C920        C  0.14883248  0.84879235  0.96361293    -0.08500
C921        C  0.14182629  0.85447040  0.00510506     0.05000
C922        C  0.09630226  0.83751991  0.01890767    -0.03500
Br923      Br  0.08080215  0.84267240  0.07447339    -0.03200
H924        H  0.02493023  0.79722751  0.00432788     0.08900
H925        H  0.18327468  0.86304438  0.95190158     0.06900
Br926      Br  0.12400999  0.82022162  0.88028006    -0.03700
C927        C  0.16873907  0.76894165  0.14979045    -0.10300
C928        C  0.18242571  0.81321346  0.16459359     0.05900
C929        C  0.17163590  0.81768637  0.20550166    -0.04100
C930        C  0.14692468  0.77845423  0.22990038    -0.08500
C931        C  0.13172758  0.73412038  0.21448812     0.05000
C932        C  0.14305313  0.72969463  0.17390706    -0.03500
Br933      Br  0.11896159  0.67113182  0.14770349    -0.03200
H934        H  0.17585477  0.76448596  0.11828484     0.08900
H935        H  0.13785286  0.78253632  0.26079115     0.06900
Br936      Br  0.18895464  0.87588880  0.23015368    -0.03700
loop_ 
_geom_bond_atom_site_label_1 
_geom_bond_atom_site_label_2 
_geom_bond_distance 
_geom_bond_site_symmetry_2 
_ccdc_geom_bond_type 
O1           C16   1.272       .  A
O1           Al9   1.922       .  S
C2           O12   1.269       .  A
C2            O3   1.266       .  A
C2          C891   1.459       .  S
O3           Al5   1.874       .  S
O4            C6   1.253       .  A
O4           Al5   1.897       .  S
Al5          O13   1.899   1_565  S
Al5          O15   1.880       .  S
Al5          O14   1.787       .  S
C6           O19   1.263       .  A
C6          C881   1.492       .  S
O7           C17   1.261       .  A
O7           Al9   1.901       .  S
O8           C21   1.255       .  A
O8          Al18   1.878       .  S
Al9          O22   1.933       .  S
Al9          O19   1.946       .  S
Al9          O14   1.772       .  S
O10          C17   1.263       .  A
O10         Al18   1.910       .  S
O11          C20   1.259   1_565  A
O11         Al18   1.926       .  S
O12         Al18   1.905       .  S
O13          C20   1.251       .  A
O14         Al18   1.769       .  S
O15          C16   1.265       .  A
C16         C911   1.450   1_554  S
C17         C928   1.490       .  S
C20         C901   1.470       .  S
C21          O22   1.267       .  A
C21         C921   1.490       .  S
O23          C38   1.271       .  A
O23         Al31   1.910       .  S
C24          O34   1.272       .  A
C24          O25   1.267   1_565  A
C24         C908   1.460       .  S
O25         Al27   1.884       .  S
O26          C28   1.253       .  A
O26         Al27   1.906       .  S
Al27         O35   1.898   1_545  S
Al27         O37   1.888   1_545  S
Al27         O36   1.792       .  S
C28          O41   1.264       .  A
C28         C848   1.482       .  S
O29          C39   1.256       .  A
O29         Al31   1.887       .  S
O30          C43   1.258       .  A
O30         Al40   1.894       .  S
Al31         O44   1.938       .  S
Al31         O41   1.944       .  S
Al31         O36   1.771       .  S
O32          C39   1.268   1_565  A
O32         Al40   1.939       .  S
O33          C42   1.264       .  A
O33         Al40   1.952       .  S
O34         Al40   1.917       .  S
O35          C42   1.251       .  A
O36         Al40   1.767   1_545  S
O37          C38   1.265   1_565  A
C38         C838   1.472       .  S
C39         C858   1.493       .  S
C42         C828   1.490       .  S
C43          O44   1.270   1_565  A
C43         C868   1.502       .  S
O45          C60   1.270       .  A
O45         Al53   1.912       .  S
C46          O56   1.268       .  A
C46          O47   1.268       .  A
C46         C778   1.470   1_554  S
O47         Al49   1.893       .  S
O48          C50   1.251       .  A
O48         Al49   1.893   1_655  S
Al49         O57   1.898       .  S
Al49         O59   1.880       .  S
Al49         O58   1.784       .  S
C50          O63   1.263   1_655  A
C50         C768   1.492       .  S
O51          C61   1.257       .  A
O51         Al53   1.888       .  S
O52          C65   1.254       .  A
O52         Al62   1.878       .  S
Al53         O66   1.940       .  S
Al53         O63   1.950       .  S
Al53         O58   1.774       .  S
O54          C61   1.268       .  A
O54         Al62   1.926       .  S
O55          C64   1.264       .  A
O55         Al62   1.958       .  S
O56         Al62   1.906       .  S
O57          C64   1.254       .  A
O58         Al62   1.771       .  S
O59          C60   1.266       .  A
C60         C798   1.447       .  S
C61         C818   1.494       .  S
C64         C788   1.506       .  S
C65          O66   1.268       .  A
C65         C811   1.497       .  S
O67          C82   1.262       .  A
O67         Al75   1.934       .  S
C68          O78   1.264       .  A
C68          O69   1.254       .  A
C68         C821   1.484       .  S
O69         Al71   1.898       .  S
O70          C72   1.267       .  A
O70         Al71   1.890       .  S
Al71         O79   1.897       .  S
Al71         O81   1.892       .  S
Al71         O80   1.785       .  S
C72          O85   1.269       .  A
C72         C758   1.460   1_556  S
O73          C83   1.265       .  A
O73         Al75   1.922       .  S
O74          C87   1.268       .  A
O74         Al84   1.933       .  S
Al75         O88   1.895       .  S
Al75         O85   1.912       .  S
Al75         O80   1.770       .  S
O76          C83   1.254       .  A
O76         Al84   1.873       .  S
O77          C86   1.267       .  A
O77         Al84   1.893       .  S
O78         Al84   1.937       .  S
O79          C86   1.266       .  A
O80         Al84   1.771       .  S
O81          C82   1.251       .  A
C82         C738   1.478       .  S
C83         C898   1.478       .  S
C86         C751   1.472       .  S
C87          O88   1.259       .  A
C87         C851   1.490       .  S
O89         C104   1.269       .  A
O89         Al97   1.909       .  S
C90         O100   1.268       .  A
C90          O91   1.265       .  A
C90         C801   1.462       .  S
O91         Al93   1.884       .  S
O92          C94   1.255       .  A
O92         Al93   1.904       .  S
Al93        O101   1.898   1_655  S
Al93        O103   1.898       .  S
Al93        O102   1.786       .  S
C94         O107   1.261       .  A
C94         C688   1.479       .  S
O95         C105   1.255       .  A
O95         Al97   1.883       .  S
O96         C109   1.259       .  A
O96        Al106   1.894       .  S
Al97        O110   1.918       .  S
Al97        O107   1.928       .  S
Al97        O102   1.769       .  S
O98         C105   1.266       .  A
O98        Al106   1.922       .  S
O99         C108   1.262   1_655  A
O99        Al106   1.933       .  S
O100       Al106   1.909       .  S
O101        C108   1.253       .  A
O102       Al106   1.776       .  S
O103        C104   1.266       .  A
C104        C708   1.482       .  S
C105        C721   1.487       .  S
C108        C698   1.477       .  S
C109        O110   1.265       .  A
C109        C731   1.492       .  S
O111        C126   1.261       .  A
O111       Al119   1.931       .  S
C112        O122   1.265       .  A
C112        O113   1.252       .  A
C112        C808   1.485       .  S
O113       Al115   1.897       .  S
O114        C116   1.265       .  A
O114       Al115   1.890       .  S
Al115       O123   1.887       .  S
Al115       O125   1.899       .  S
Al115       O124   1.786       .  S
C116        O129   1.270       .  A
C116        C761   1.473       .  S
O117        C127   1.267       .  A
O117       Al119   1.918       .  S
O118        C131   1.267       .  A
O118       Al128   1.932       .  S
Al119       O132   1.891       .  S
Al119       O129   1.913       .  S
Al119       O124   1.773       .  S
O120        C127   1.258       .  A
O120       Al128   1.896       .  S
O121        C130   1.270       .  A
O121       Al128   1.904       .  S
O122       Al128   1.943       .  S
O123        C130   1.265       .  A
O124       Al128   1.768       .  S
O125        C126   1.254       .  A
C126        C648   1.481       .  S
C127        C678   1.494       .  S
C130        C658   1.471       .  S
C131        O132   1.258       .  A
C131        C671   1.491       .  S
O133        C148   1.272       .  A
O133       Al141   1.902       .  S
C134        O144   1.273       .  A
C134        O135   1.269       .  A
C134        C711   1.471       .  S
O135       Al137   1.887       .  S
O136        C138   1.249       .  A
O136       Al137   1.881   1_455  S
Al137       O145   1.887       .  S
Al137       O147   1.904       .  S
Al137       O146   1.790       .  S
C138        O151   1.263       .  A
C138        C621   1.487       .  S
O139        C149   1.254       .  A
O139       Al141   1.882       .  S
O140        C153   1.260       .  A
O140       Al150   1.899       .  S
Al141       O154   1.933       .  S
Al141       O151   1.945       .  S
Al141       O146   1.769   1_455  S
O142        C149   1.266   1_655  A
O142       Al150   1.920       .  S
O143        C152   1.260       .  A
O143       Al150   1.937       .  S
O144       Al150   1.923       .  S
O145        C152   1.246       .  A
O146       Al150   1.772       .  S
O147        C148   1.271   1_655  A
C148        C781   1.478       .  S
C149        C628   1.489       .  S
C152        C608   1.472       .  S
C153        O154   1.267   1_655  A
C153        C638   1.503       .  S
O155        C170   1.270       .  A
O155       Al163   1.911       .  S
C156        O166   1.267       .  A
C156        O157   1.266       .  A
C156        C888   1.471       .  S
O157       Al159   1.893       .  S
O158        C160   1.250       .  A
O158       Al159   1.883       .  S
Al159       O167   1.887   1_545  S
Al159       O169   1.881       .  S
Al159       O168   1.787       .  S
C160        O173   1.264       .  A
C160        C581   1.490       .  S
O161        C171   1.260       .  A
O161       Al163   1.896       .  S
O162        C175   1.251       .  A
O162       Al172   1.870       .  S
Al163       O176   1.939       .  S
Al163       O173   1.949       .  S
Al163       O168   1.773       .  S
O164        C171   1.267       .  A
O164       Al172   1.923       .  S
O165        C174   1.263   1_545  A
O165       Al172   1.937       .  S
O166       Al172   1.893       .  S
O167        C174   1.251       .  A
O168       Al172   1.769       .  S
O169        C170   1.266       .  A
C170        C841   1.458       .  S
C171        C651   1.492       .  S
C174        C588   1.481       .  S
C175        O176   1.269       .  A
C175        C598   1.494       .  S
O177        C192   1.265       .  A
O177       Al185   1.970       .  S
C178        O188   1.263       .  A
C178        O179   1.247       .  A
C178        C601   1.483       .  S
O179       Al181   1.880       .  S
O180        C182   1.266       .  A
O180       Al181   1.872       .  S
Al181       O189   1.872       .  S
Al181       O191   1.885       .  S
Al181       O190   1.785       .  S
C182        O195   1.273       .  A
C182        C661   1.454       .  S
O183        C193   1.268       .  A
O183       Al185   1.936       .  S
O184        C197   1.265       .  A
O184       Al194   1.922       .  S
Al185       O198   1.882       .  S
Al185       O195   1.915       .  S
Al185       O190   1.770       .  S
O186        C193   1.256       .  A
O186       Al194   1.885       .  S
O187        C196   1.271       .  A
O187       Al194   1.910       .  S
O188       Al194   1.950       .  S
O189        C196   1.267       .  A
O190       Al194   1.772       .  S
O191        C192   1.249       .  A
C192        C568   1.504       .  S
C193        C701   1.488       .  S
C196        C748   1.459       .  S
C197        O198   1.258       .  A
C197        C618   1.494       .  S
O199        C214   1.264       .  A
O199       Al207   1.941       .  S
C200        O210   1.263   1_655  A
C200        O201   1.251       .  A
C200        C538   1.484       .  S
O201       Al203   1.891   1_655  S
O202        C204   1.265       .  A
O202       Al203   1.875       .  S
Al203       O211   1.861       .  S
Al203       O213   1.885       .  S
Al203       O212   1.786       .  S
C204        O217   1.271       .  A
C204        C548   1.461       .  S
O205        C215   1.266       .  A
O205       Al207   1.914       .  S
O206        C219   1.267       .  A
O206       Al216   1.935       .  S
Al207       O220   1.900       .  S
Al207       O217   1.923       .  S
Al207       O212   1.772       .  S
O208        C215   1.258       .  A
O208       Al216   1.893       .  S
O209        C218   1.270       .  A
O209       Al216   1.920       .  S
O210       Al216   1.944       .  S
O211        C218   1.261       .  A
O212       Al216   1.775       .  S
O213        C214   1.250       .  A
C214        C631   1.483       .  S
C215        C591   1.491       .  S
C218        C558   1.442   1_455  S
C219        O220   1.260       .  A
C219        C831   1.499       .  S
O221        C236   1.260   1_565  A
O221       Al229   1.940       .  S
C222        O232   1.267       .  A
C222        O223   1.250       .  A
C222        C871   1.492       .  S
O223       Al225   1.890       .  S
O224        C226   1.267       .  A
O224       Al225   1.882       .  S
Al225       O233   1.889       .  S
Al225       O235   1.886   1_565  S
Al225       O234   1.789       .  S
C226        O239   1.272       .  A
C226        C528   1.463       .  S
O227        C237   1.267       .  A
O227       Al229   1.927       .  S
O228        C241   1.269       .  A
O228       Al238   1.937       .  S
Al229       O242   1.882       .  S
Al229       O239   1.921       .  S
Al229       O234   1.772       .  S
O230        C237   1.255       .  A
O230       Al238   1.879       .  S
O231        C240   1.267       .  A
O231       Al238   1.898       .  S
O232       Al238   1.957       .  S
O233        C240   1.267       .  A
O234       Al238   1.771       .  S
O235        C236   1.249       .  A
C236        C728   1.481       .  S
C237        C508   1.484       .  S
C240        C521   1.463       .  S
C241        O242   1.255       .  A
C241        C498   1.496       .  S
O243        C258   1.262       .  A
O243       Al251   1.941       .  S
C244        O254   1.262       .  A
C244        O245   1.248       .  A
C244        C931   1.484       .  S
O245       Al247   1.891       .  S
O246        C248   1.269   1_455  A
O246       Al247   1.892       .  S
Al247       O255   1.880   1_455  S
Al247       O257   1.894   1_455  S
Al247       O256   1.788       .  S
C248        O261   1.275       .  A
C248        C491   1.476       .  S
O249        C259   1.264   1_655  A
O249       Al251   1.918       .  S
O250        C263   1.265   1_455  A
O250       Al260   1.921       .  S
Al251       O264   1.887       .  S
Al251       O261   1.919       .  S
Al251       O256   1.763   1_655  S
O252        C259   1.262       .  A
O252       Al260   1.912       .  S
O253        C262   1.278       .  A
O253       Al260   1.932       .  S
O254       Al260   1.944       .  S
O255        C262   1.268   1_655  A
O256       Al260   1.770       .  S
O257        C258   1.249       .  A
C258        C478   1.482       .  S
C259        C791   1.506       .  S
C262        C551   1.477       .  S
C263        O264   1.257       .  A
C263        C691   1.486       .  S
O265        C280   1.269       .  A
O265       Al273   1.907       .  S
C266        O276   1.268       .  A
C266        O267   1.267       .  A
C266        C471   1.458       .  S
O267       Al269   1.883       .  S
O268        C270   1.252       .  A
O268       Al269   1.900       .  S
Al269       O277   1.890       .  S
Al269       O279   1.883       .  S
Al269       O278   1.788       .  S
C270        O283   1.261       .  A
C270        C668   1.481       .  S
O271        C281   1.256       .  A
O271       Al273   1.882       .  S
O272        C285   1.258       .  A
O272       Al282   1.890       .  S
Al273       O286   1.922       .  S
Al273       O283   1.936       .  S
Al273       O278   1.773       .  S
O274        C281   1.267       .  A
O274       Al282   1.927       .  S
O275        C284   1.264       .  A
O275       Al282   1.942       .  S
O276       Al282   1.907       .  S
O277        C284   1.250       .  A
O278       Al282   1.774       .  S
O279        C280   1.265       .  A
C280        C458   1.456       .  S
C281        C481   1.490       .  S
C284        C501   1.486       .  S
C285        O286   1.265       .  A
C285        C541   1.492       .  S
O287        C302   1.274       .  A
O287       Al295   1.915       .  S
C288        O298   1.276       .  A
C288        O289   1.268       .  A
C288        C448   1.478       .  S
O289       Al291   1.889       .  S
O290        C292   1.245       .  A
O290       Al291   1.877       .  S
Al291       O299   1.890       .  S
Al291       O301   1.893       .  S
Al291       O300   1.784       .  S
C292        O305   1.267       .  A
C292        C438   1.504       .  S
O293        C303   1.256       .  A
O293       Al295   1.880       .  S
O294        C307   1.259       .  A
O294       Al304   1.899       .  S
Al295       O308   1.947       .  S
Al295       O305   1.975       .  S
Al295       O300   1.769       .  S
O296        C303   1.266       .  A
O296       Al304   1.915       .  S
O297        C306   1.261       .  A
O297       Al304   1.942       .  S
O298       Al304   1.927       .  S
O299        C306   1.248       .  A
O300       Al304   1.771       .  S
O301        C302   1.270       .  A
C302        C461   1.473       .  S
C303        C741   1.482       .  S
C306        C511   1.477       .  S
C307        O308   1.271       .  A
C307        C571   1.512       .  S
O309        C324   1.262   1_545  A
O309       Al317   1.934       .  S
C310        O320   1.264       .  A
C310        O311   1.250       .  A
C310        C861   1.483       .  S
O311       Al313   1.894       .  S
O312        C314   1.267       .  A
O312       Al313   1.891       .  S
Al313       O321   1.889       .  S
Al313       O323   1.890   1_545  S
Al313       O322   1.787       .  S
C314        O327   1.272       .  A
C314        C531   1.476       .  S
O315        C325   1.265       .  A
O315       Al317   1.925       .  S
O316        C329   1.268       .  A
O316       Al326   1.930       .  S
Al317       O330   1.904       .  S
Al317       O327   1.913       .  S
Al317       O322   1.774       .  S
O318        C325   1.254       .  A
O318       Al326   1.869       .  S
O319        C328   1.266       .  A
O319       Al326   1.895       .  S
O320       Al326   1.952       .  S
O321        C328   1.269       .  A
O322       Al326   1.768       .  S
O323        C324   1.251       .  A
C324        C418   1.487       .  S
C325        C611   1.477       .  S
C328        C431   1.460   1_556  S
C329        O330   1.261       .  A
C329        C771   1.500       .  S
O331        C346   1.264       .  A
O331       Al339   1.942       .  S
C332        O342   1.260       .  A
C332        O333   1.251       .  A
C332        C718   1.476       .  S
O333       Al335   1.895   1_545  S
O334        C336   1.265       .  A
O334       Al335   1.880       .  S
Al335       O343   1.876       .  S
Al335       O345   1.896       .  S
Al335       O344   1.789       .  S
C336        O349   1.273       .  A
C336        C518   1.474       .  S
O337        C347   1.266   1_565  A
O337       Al339   1.926       .  S
O338        C351   1.263   1_545  A
O338       Al348   1.912       .  S
Al339       O352   1.907       .  S
Al339       O349   1.917       .  S
Al339       O344   1.771       .  S
O340        C347   1.259       .  A
O340       Al348   1.893       .  S
O341        C350   1.273       .  A
O341       Al348   1.910       .  S
O342       Al348   1.925       .  S
O343        C350   1.264   1_565  A
O344       Al348   1.771   1_565  S
O345        C346   1.252       .  A
C346        C411   1.487       .  S
C347        C578   1.499       .  S
C350        C428   1.471       .  S
C351        O352   1.261       .  A
C351        C878   1.498       .  S
O353        C368   1.261   1_655  A
O353       Al361   1.931       .  S
C354        O364   1.263       .  A
C354        O355   1.252       .  A
C354        C641   1.495       .  S
O355       Al357   1.901       .  S
O356        C358   1.265       .  A
O356       Al357   1.880       .  S
Al357       O365   1.890       .  S
Al357       O367   1.905   1_655  S
Al357       O366   1.790       .  S
C358        O371   1.269       .  A
C358        C561   1.456       .  S
O359        C369   1.267       .  A
O359       Al361   1.915       .  S
O360        C373   1.267       .  A
O360       Al370   1.928       .  S
Al361       O374   1.877       .  S
Al361       O371   1.902       .  S
Al361       O366   1.769       .  S
O362        C369   1.260       .  A
O362       Al370   1.915       .  S
O363        C372   1.274       .  A
O363       Al370   1.921       .  S
O364       Al370   1.946       .  S
O365        C372   1.268       .  A
O366       Al370   1.771       .  S
O367        C368   1.252       .  A
C368        C918   1.478       .  S
C369        C441   1.504       .  S
C372        C488   1.463   1_556  S
C373        O374   1.253       .  A
C373        C401   1.491       .  S
O375        C390   1.269       .  A
O375       Al383   1.908       .  S
C376        O386   1.269       .  A
C376        O377   1.267       .  A
C376        C451   1.465   1_554  S
O377       Al379   1.890       .  S
O378        C380   1.251       .  A
O378       Al379   1.887       .  S
Al379       O387   1.892       .  S
Al379       O389   1.880       .  S
Al379       O388   1.784       .  S
C380        O393   1.262       .  A
C380        C398   1.479       .  S
O381        C391   1.258       .  A
O381       Al383   1.883       .  S
O382        C395   1.258       .  A
O382       Al392   1.895       .  S
Al383       O396   1.924       .  S
Al383       O393   1.935       .  S
Al383       O388   1.777       .  S
O384        C391   1.264       .  A
O384       Al392   1.919       .  S
O385        C394   1.262       .  A
O385       Al392   1.936       .  S
O386       Al392   1.915       .  S
O387        C394   1.251       .  A
O388       Al392   1.774       .  S
O389        C390   1.265       .  A
C390        C468   1.469       .  S
C391        C421   1.494   1_554  S
C394        C681   1.484       .  S
C395        O396   1.266       .  A
C395        C408   1.495       .  S
C397        C398   1.398       .  A
C397        C402   1.402   1_554  A
C397        H404   1.083   1_554  S
C398        C399   1.414       .  A
C399        C400   1.400       .  A
C399       Br406   1.923       .  S
C400        C401   1.403   1_554  A
C400        H405   1.082       .  S
C401        C402   1.423       .  A
C402       Br403   1.924       .  S
C407        C408   1.405       .  A
C407        C412   1.402       .  A
C407        H414   1.083       .  S
C408        C409   1.422       .  A
C409        C410   1.404       .  A
C409       Br416   1.922       .  S
C410        C411   1.400       .  A
C410        H415   1.083       .  S
C411        C412   1.415       .  A
C412       Br413   1.922       .  S
C417        C418   1.410       .  A
C417        C422   1.401       .  A
C417        H424   1.083       .  S
C418        C419   1.408       .  A
C419        C420   1.400   1_556  A
C419       Br426   1.921   1_556  S
C420        C421   1.413   1_554  A
C420        H425   1.083       .  S
C421        C422   1.413       .  A
C422       Br423   1.923       .  S
C427        C428   1.404       .  A
C427        C432   1.382       .  A
C427        H434   1.083       .  S
C428        C429   1.416       .  A
C429        C430   1.395       .  A
C429       Br436   1.923   1_545  S
C430        C431   1.402       .  A
C430        H435   1.084   1_545  S
C431        C432   1.409       .  A
C432       Br433   1.927       .  S
C437        C438   1.406       .  A
C437        C442   1.414       .  A
C437        H444   1.084       .  S
C438        C439   1.425       .  A
C439        C440   1.396       .  A
C439       Br446   1.928       .  S
C440        C441   1.400       .  A
C440        H445   1.084       .  S
C441        C442   1.423       .  A
C442       Br443   1.920       .  S
C447        C448   1.406       .  A
C447        C452   1.389       .  A
C447        H454   1.084       .  S
C448        C449   1.416       .  A
C449        C450   1.398       .  A
C449       Br456   1.922       .  S
C450        C451   1.402       .  A
C450        H455   1.085       .  S
C451        C452   1.406       .  A
C452       Br453   1.922       .  S
C457        C458   1.403       .  A
C457        C462   1.398       .  A
C457        H464   1.084       .  S
C458        C459   1.402       .  A
C459        C460   1.385       .  A
C459       Br466   1.924       .  S
C460        C461   1.406       .  A
C460        H465   1.081       .  S
C461        C462   1.413       .  A
C462       Br463   1.921       .  S
C467        C468   1.407       .  A
C467        C472   1.388       .  A
C467        H474   1.083       .  S
C468        C469   1.411       .  A
C469        C470   1.392       .  A
C469       Br476   1.923       .  S
C470        C471   1.399       .  A
C470        H475   1.078       .  S
C471        C472   1.406       .  A
C472       Br473   1.924       .  S
C477        C478   1.400       .  A
C477        C482   1.401       .  A
C477        H484   1.083       .  S
C478        C479   1.415       .  A
C479        C480   1.401       .  A
C479       Br486   1.922       .  S
C480        C481   1.403       .  A
C480        H485   1.083       .  S
C481        C482   1.421       .  A
C482       Br483   1.924       .  S
C487        C488   1.405   1_455  A
C487        C492   1.402       .  A
C487        H494   1.084       .  S
C488        C489   1.403       .  A
C489        C490   1.385       .  A
C489       Br496   1.923       .  S
C490        C491   1.405       .  A
C490        H495   1.082       .  S
C491        C492   1.415   1_655  A
C492       Br493   1.920       .  S
C497        C498   1.404       .  A
C497        C502   1.403       .  A
C497        H504   1.083       .  S
C498        C499   1.425       .  A
C499        C500   1.402       .  A
C499       Br506   1.923       .  S
C500        C501   1.398       .  A
C500        H505   1.084       .  S
C501        C502   1.417       .  A
C502       Br503   1.923       .  S
C507        C508   1.401       .  A
C507        C512   1.402       .  A
C507        H514   1.083       .  S
C508        C509   1.419       .  A
C509        C510   1.401       .  A
C509       Br516   1.924       .  S
C510        C511   1.400       .  A
C510        H515   1.083       .  S
C511        C512   1.413       .  A
C512       Br513   1.920       .  S
C517        C518   1.404       .  A
C517        C522   1.384       .  A
C517        H524   1.083       .  S
C518        C519   1.416       .  A
C519        C520   1.397       .  A
C519       Br526   1.924   1_565  S
C520        C521   1.403       .  A
C520        H525   1.083   1_565  S
C521        C522   1.408       .  A
C522       Br523   1.927       .  S
C527        C528   1.403       .  A
C527        C532   1.397       .  A
C527        H534   1.084       .  S
C528        C529   1.404   1_565  A
C529        C530   1.388       .  A
C529       Br536   1.923       .  S
C530        C531   1.407       .  A
C530        H535   1.083       .  S
C531        C532   1.415   1_545  A
C532       Br533   1.922       .  S
C537        C538   1.409       .  A
C537        C542   1.402       .  A
C537        H544   1.084       .  S
C538        C539   1.408       .  A
C539        C540   1.403       .  A
C539       Br546   1.920       .  S
C540        C541   1.412       .  A
C540        H545   1.084       .  S
C541        C542   1.411       .  A
C542       Br543   1.921       .  S
C547        C548   1.400       .  A
C547        C552   1.394       .  A
C547        H554   1.084   1_455  S
C548        C549   1.405       .  A
C549        C550   1.390       .  A
C549       Br556   1.923       .  S
C550        C551   1.407       .  A
C550        H555   1.083       .  S
C551        C552   1.417       .  A
C552       Br553   1.923   1_455  S
C557        C558   1.399   1_455  A
C557        C562   1.390       .  A
C557        H564   1.085       .  S
C558        C559   1.399       .  A
C559        C560   1.386       .  A
C559       Br566   1.921       .  S
C560        C561   1.406       .  A
C560        H565   1.084       .  S
C561        C562   1.408   1_655  A
C562       Br563   1.920       .  S
C567        C568   1.411       .  A
C567        C572   1.401       .  A
C567        H574   1.083       .  S
C568        C569   1.411       .  A
C569        C570   1.414       .  A
C569       Br576   1.919       .  S
C570        C571   1.419       .  A
C570        H575   1.082       .  S
C571        C572   1.412       .  A
C572       Br573   1.914       .  S
C577        C578   1.414       .  A
C577        C582   1.405       .  A
C577        H584   1.082       .  S
C578        C579   1.412       .  A
C579        C580   1.400       .  A
C579       Br586   1.915   1_545  S
C580        C581   1.409       .  A
C580        H585   1.083       .  S
C581        C582   1.408       .  A
C582       Br583   1.919       .  S
C587        C588   1.400       .  A
C587        C592   1.402       .  A
C587        H594   1.084       .  S
C588        C589   1.415       .  A
C589        C590   1.397       .  A
C589       Br596   1.924       .  S
C590        C591   1.403       .  A
C590        H595   1.083       .  S
C591        C592   1.422       .  A
C592       Br593   1.922       .  S
C597        C598   1.402       .  A
C597        C602   1.401       .  A
C597        H604   1.083       .  S
C598        C599   1.426       .  A
C599        C600   1.402       .  A
C599       Br606   1.925       .  S
C600        C601   1.398       .  A
C600        H605   1.084       .  S
C601        C602   1.416       .  A
C602       Br603   1.922       .  S
C607        C608   1.398       .  A
C607        C612   1.397       .  A
C607        H614   1.084       .  S
C608        C609   1.413       .  A
C609        C610   1.402       .  A
C609       Br616   1.919       .  S
C610        C611   1.402       .  A
C610        H615   1.084       .  S
C611        C612   1.415       .  A
C612       Br613   1.924       .  S
C617        C618   1.414       .  A
C617        C622   1.402       .  A
C617        H624   1.083       .  S
C618        C619   1.412       .  A
C619        C620   1.400       .  A
C619       Br626   1.923       .  S
C620        C621   1.411       .  A
C620        H625   1.084       .  S
C621        C622   1.407       .  A
C622       Br623   1.920       .  S
C627        C628   1.401       .  A
C627        C632   1.398       .  A
C627        H634   1.083   1_455  S
C628        C629   1.422       .  A
C629        C630   1.403       .  A
C629       Br636   1.923       .  S
C630        C631   1.401       .  A
C630        H635   1.083       .  S
C631        C632   1.417       .  A
C632       Br633   1.923       .  S
C637        C638   1.413       .  A
C637        C642   1.406       .  A
C637        H644   1.083       .  S
C638        C639   1.414       .  A
C639        C640   1.405       .  A
C639       Br646   1.919   1_655  S
C640        C641   1.410       .  A
C640        H645   1.083       .  S
C641        C642   1.410       .  A
C642       Br643   1.920       .  S
C647        C648   1.405       .  A
C647        C652   1.399       .  A
C647        H654   1.084       .  S
C648        C649   1.409       .  A
C649        C650   1.404       .  A
C649       Br656   1.920       .  S
C650        C651   1.412       .  A
C650        H655   1.083       .  S
C651        C652   1.411       .  A
C652       Br653   1.913       .  S
C657        C658   1.407       .  A
C657        C662   1.383       .  A
C657        H664   1.084       .  S
C658        C659   1.415       .  A
C659        C660   1.395       .  A
C659       Br666   1.922       .  S
C660        C661   1.402       .  A
C660        H665   1.085       .  S
C661        C662   1.402       .  A
C662       Br663   1.925       .  S
C667        C668   1.406       .  A
C667        C672   1.402       .  A
C667        H674   1.084       .  S
C668        C669   1.407       .  A
C669        C670   1.403       .  A
C669       Br676   1.919       .  S
C670        C671   1.411       .  A
C670        H675   1.083       .  S
C671        C672   1.410       .  A
C672       Br673   1.914       .  S
C677        C678   1.404       .  A
C677        C682   1.400       .  A
C677        H684   1.083       .  S
C678        C679   1.423       .  A
C679        C680   1.404       .  A
C679       Br686   1.923       .  S
C680        C681   1.400       .  A
C680        H685   1.083       .  S
C681        C682   1.414       .  A
C682       Br683   1.921       .  S
C687        C688   1.400       .  A
C687        C692   1.401       .  A
C687        H694   1.083       .  S
C688        C689   1.412       .  A
C689        C690   1.402       .  A
C689       Br696   1.920       .  S
C690        C691   1.404       .  A
C690        H695   1.083       .  S
C691        C692   1.419       .  A
C692       Br693   1.923       .  S
C697        C698   1.399       .  A
C697        C702   1.402       .  A
C697        H704   1.085       .  S
C698        C699   1.412       .  A
C699        C700   1.403       .  A
C699       Br706   1.920       .  S
C700        C701   1.403       .  A
C700        H705   1.084       .  S
C701        C702   1.419       .  A
C702       Br703   1.922       .  S
C707        C708   1.408       .  A
C707        C712   1.388       .  A
C707        H714   1.083       .  S
C708        C709   1.415   1_655  A
C709        C710   1.399       .  A
C709       Br716   1.922       .  S
C710        C711   1.405   1_455  A
C710        H715   1.083       .  S
C711        C712   1.407       .  A
C712       Br713   1.924       .  S
C717        C718   1.397       .  A
C717        C722   1.398       .  A
C717        H724   1.084       .  S
C718        C719   1.413       .  A
C719        C720   1.400       .  A
C719       Br726   1.922       .  S
C720        C721   1.404       .  A
C720        H725   1.084       .  S
C721        C722   1.422       .  A
C722       Br723   1.924       .  S
C727        C728   1.406       .  A
C727        C732   1.399       .  A
C727        H734   1.083       .  S
C728        C729   1.408       .  A
C729        C730   1.404       .  A
C729       Br736   1.921   1_545  S
C730        C731   1.413       .  A
C730        H735   1.082       .  S
C731        C732   1.411       .  A
C732       Br733   1.917       .  S
C737        C738   1.400       .  A
C737        C742   1.401       .  A
C737        H744   1.083       .  S
C738        C739   1.414       .  A
C739        C740   1.397       .  A
C739       Br746   1.918       .  S
C740        C741   1.401       .  A
C740        H745   1.083       .  S
C741        C742   1.419       .  A
C742       Br743   1.923       .  S
C747        C748   1.404       .  A
C747        C752   1.395       .  A
C747        H754   1.084       .  S
C748        C749   1.405       .  A
C749        C750   1.382       .  A
C749       Br756   1.927       .  S
C750        C751   1.408       .  A
C750        H755   1.083       .  S
C751        C752   1.413       .  A
C752       Br753   1.921       .  S
C757        C758   1.403       .  A
C757        C762   1.399       .  A
C757        H764   1.083       .  S
C758        C759   1.404       .  A
C759        C760   1.386       .  A
C759       Br766   1.921       .  S
C760        C761   1.405       .  A
C760        H765   1.083       .  S
C761        C762   1.413       .  A
C762       Br763   1.921       .  S
C767        C768   1.409       .  A
C767        C772   1.403       .  A
C767        H774   1.083       .  S
C768        C769   1.409       .  A
C769        C770   1.408   1_554  A
C769       Br776   1.920   1_554  S
C770        C771   1.414       .  A
C770        H775   1.082       .  S
C771        C772   1.412   1_556  A
C772       Br773   1.921       .  S
C777        C778   1.407       .  A
C777        C782   1.400       .  A
C777        H784   1.084   1_455  S
C778        C779   1.411       .  A
C779        C780   1.384       .  A
C779       Br786   1.928       .  S
C780        C781   1.406       .  A
C780        H785   1.083       .  S
C781        C782   1.412       .  A
C782       Br783   1.920   1_455  S
C787        C788   1.411       .  A
C787        C792   1.399       .  A
C787        H794   1.083   1_455  S
C788        C789   1.414       .  A
C789        C790   1.413       .  A
C789       Br796   1.919       .  S
C790        C791   1.416       .  A
C790        H795   1.083       .  S
C791        C792   1.415       .  A
C792       Br793   1.922   1_455  S
C797        C798   1.400       .  A
C797        C802   1.394       .  A
C797        H804   1.084       .  S
C798        C799   1.400   1_455  A
C799        C800   1.388       .  A
C799       Br806   1.921       .  S
C800        C801   1.405       .  A
C800        H805   1.083       .  S
C801        C802   1.409   1_655  A
C802       Br803   1.920       .  S
C807        C808   1.398       .  A
C807        C812   1.402       .  A
C807        H814   1.084       .  S
C808        C809   1.415       .  A
C809        C810   1.404       .  A
C809       Br816   1.921       .  S
C810        C811   1.404       .  A
C810        H815   1.084       .  S
C811        C812   1.425       .  A
C812       Br813   1.923       .  S
C817        C818   1.404   1_556  A
C817        C822   1.400       .  A
C817        H824   1.083       .  S
C818        C819   1.423       .  A
C819        C820   1.403   1_554  A
C819       Br826   1.923       .  S
C820        C821   1.400       .  A
C820        H825   1.083   1_556  S
C821        C822   1.414       .  A
C822       Br823   1.922       .  S
C827        C828   1.409       .  A
C827        C832   1.407       .  A
C827        H834   1.085       .  S
C828        C829   1.409       .  A
C829        C830   1.405       .  A
C829       Br836   1.921       .  S
C830        C831   1.412       .  A
C830        H835   1.084       .  S
C831        C832   1.413       .  A
C832       Br833   1.920       .  S
C837        C838   1.406       .  A
C837        C842   1.384       .  A
C837        H844   1.084       .  S
C838        C839   1.415       .  A
C839        C840   1.397       .  A
C839       Br846   1.922   1_545  S
C840        C841   1.403       .  A
C840        H845   1.084   1_545  S
C841        C842   1.404       .  A
C842       Br843   1.924       .  S
C847        C848   1.400       .  A
C847        C852   1.402       .  A
C847        H854   1.085       .  S
C848        C849   1.413       .  A
C849        C850   1.406       .  A
C849       Br856   1.918       .  S
C850        C851   1.404       .  A
C850        H855   1.085       .  S
C851        C852   1.419       .  A
C852       Br853   1.923       .  S
C857        C858   1.403       .  A
C857        C862   1.404       .  A
C857        H864   1.082       .  S
C858        C859   1.421       .  A
C859        C860   1.404       .  A
C859       Br866   1.923       .  S
C860        C861   1.400       .  A
C860        H865   1.083       .  S
C861        C862   1.414       .  A
C862       Br863   1.919       .  S
C867        C868   1.404       .  A
C867        C872   1.404       .  A
C867        H874   1.084   1_565  S
C868        C869   1.425       .  A
C869        C870   1.406       .  A
C869       Br876   1.923       .  S
C870        C871   1.400       .  A
C870        H875   1.083       .  S
C871        C872   1.418       .  A
C872       Br873   1.923       .  S
C877        C878   1.412       .  A
C877        C882   1.407       .  A
C877        H884   1.083       .  S
C878        C879   1.414       .  A
C879        C880   1.401       .  A
C879       Br886   1.920   1_565  S
C880        C881   1.408       .  A
C880        H885   1.084       .  S
C881        C882   1.410       .  A
C882       Br883   1.920       .  S
C887        C888   1.407       .  A
C887        C892   1.381       .  A
C887        H894   1.084       .  S
C888        C889   1.412   1_545  A
C889        C890   1.395       .  A
C889       Br896   1.922       .  S
C890        C891   1.404       .  A
C890        H895   1.085       .  S
C891        C892   1.406   1_565  A
C892       Br893   1.927       .  S
C897        C898   1.402   1_554  A
C897        C902   1.401       .  A
C897        H904   1.084       .  S
C898        C899   1.418       .  A
C899        C900   1.397   1_556  A
C899       Br906   1.924       .  S
C900        C901   1.398       .  A
C900        H905   1.084   1_554  S
C901        C902   1.411       .  A
C902       Br903   1.919       .  S
C907        C908   1.404       .  A
C907        C912   1.390       .  A
C907        H914   1.083       .  S
C908        C909   1.408       .  A
C909        C910   1.395       .  A
C909       Br916   1.919       .  S
C910        C911   1.401       .  A
C910        H915   1.084       .  S
C911        C912   1.401       .  A
C912       Br913   1.920       .  S
C917        C918   1.397       .  A
C917        C922   1.399   1_556  A
C917        H924   1.083   1_556  S
C918        C919   1.412       .  A
C919        C920   1.405       .  A
C919       Br926   1.920       .  S
C920        C921   1.405   1_556  A
C920        H925   1.083       .  S
C921        C922   1.420       .  A
C922       Br923   1.921       .  S
C927        C928   1.409       .  A
C927        C932   1.402       .  A
C927        H934   1.085       .  S
C928        C929   1.413       .  A
C929        C930   1.402       .  A
C929       Br936   1.923       .  S
C930        C931   1.409       .  A
C930        H935   1.084       .  S
C931        C932   1.409       .  A
C932       Br933   1.920       .  S
