geometry optimzed in LAMMPS
_audit_creation_date              2020-11-30 
_audit_creation_method            'lammps2cif' 
_symmetry_space_group_name_H-M    'P1' 
_symmetry_Int_Tables_number       1 
_symmetry_cell_setting            triclinic 
loop_ 
_symmetry_equiv_pos_as_xyz 
  x,y,z 
_cell_length_a                    79.87777439 
_cell_length_b                    79.3503029315047 
_cell_length_c                    79.6286089429035 
_cell_angle_alpha                 90.03881905534173 
_cell_angle_beta                  90.44229716481878 
_cell_angle_gamma                 89.70673115692576 
loop_ 
_atom_site_label 
_atom_site_type_symbol 
_atom_site_fract_x 
_atom_site_fract_y 
_atom_site_fract_z 
_atom_site_charge 
C1          C  0.10217875  0.75270455  0.36490026     0.85900
C2          C  0.10440840  0.74067964  0.34993023    -0.54300
C3          C  0.11876181  0.73128381  0.35055560     0.08900
C4          C  0.12966328  0.73461964  0.36631292     0.19800
C5          C  0.10347975  0.74137366  0.38035168    -0.55000
C6          C  0.11772020  0.73188538  0.38123474     0.09000
C7          C  0.11828503  0.76313022  0.36503784    -0.54600
C8          C  0.13273021  0.75381889  0.36567718     0.09500
H9          H  0.09575348  0.73949931  0.33950574     0.14100
H10         H  0.14127821  0.72688852  0.36687085    -0.00200
H11         H  0.09381647  0.74087713  0.38987153     0.14400
H12         H  0.11819640  0.77680886  0.36452943     0.14100
C13         C  0.75454023  0.16164262  0.64116121     0.85900
C14         C  0.76517191  0.14555927  0.64095308    -0.54300
C15         C  0.75616263  0.13103641  0.64143387     0.08900
C16         C  0.73711948  0.13383471  0.64196490     0.19800
C17         C  0.74226407  0.15964995  0.62635677    -0.55000
C18         C  0.73332100  0.14491824  0.62639150     0.09000
C19         C  0.74337020  0.16000139  0.65669812    -0.54600
C20         C  0.73429661  0.14550097  0.65720684     0.09500
H21         H  0.77876590  0.14566012  0.64050847     0.14100
H22         H  0.73006894  0.12185525  0.64251716    -0.00200
H23         H  0.74087095  0.16923930  0.61674658     0.14400
H24         H  0.74177138  0.16977886  0.66605835     0.14100
C25         C  0.36076884  0.15270108  0.74538231     0.85900
C26         C  0.35774399  0.16790186  0.75707882    -0.54300
C27         C  0.34336726  0.16664822  0.76625179     0.08900
C28         C  0.33322450  0.15053409  0.76280342     0.19800
C29         C  0.36005672  0.13734834  0.75707135    -0.55000
C30         C  0.34570641  0.13611973  0.76612194     0.09000
C31         C  0.34476686  0.15174375  0.73465523    -0.54600
C32         C  0.33043634  0.15043054  0.74369264     0.09500
H33         H  0.36618287  0.17843491  0.75863188     0.14100
H34         H  0.32151174  0.14966720  0.77017524    -0.00200
H35         H  0.36999832  0.12797206  0.75775951     0.14400
H36         H  0.34481308  0.15133377  0.72101318     0.14100
C37         C  0.12562531  0.61561254  0.74974225     0.85900
C38         C  0.14173306  0.62035463  0.75932951    -0.54300
C39         C  0.14102049  0.63567166  0.76706462     0.08900
C40         C  0.12428943  0.64500124  0.76454971     0.19800
C41         C  0.11168606  0.61718641  0.76282247    -0.55000
C42         C  0.11082782  0.63261125  0.77050064     0.09000
C43         C  0.12259678  0.63047713  0.73771636    -0.54600
C44         C  0.12184240  0.64575061  0.74549784     0.09500
H45         H  0.15277023  0.61249826  0.76041976     0.14100
H46         H  0.12381824  0.65756144  0.77068244    -0.00200
H47         H  0.10276008  0.60718733  0.76511259     0.14400
H48         H  0.12121041  0.62906874  0.72420270     0.14100
C49         C  0.59932173  0.74421340  0.13768534     0.85900
C50         C  0.60274398  0.75615710  0.15262307    -0.54300
C51         C  0.61737398  0.76488400  0.15142429     0.08900
C52         C  0.62743820  0.76087393  0.13555744     0.19800
C53         C  0.60051211  0.75561973  0.12210304    -0.55000
C54         C  0.61518024  0.76443229  0.12096832     0.09000
C55         C  0.61502669  0.73297815  0.13706770    -0.54600
C56         C  0.62967194  0.74162770  0.13584519     0.09500
H57         H  0.59456122  0.75804419  0.16321831     0.14100
H58         H  0.63940960  0.76787628  0.13497827    -0.00200
H59         H  0.59055203  0.75653061  0.11278874     0.14400
H60         H  0.61460006  0.71929803  0.13742395     0.14100
C61         C  0.72179916  0.38099574  0.15025158     0.85900
C62         C  0.73553175  0.38001068  0.16396032    -0.01500
C63         C  0.74536188  0.36587959  0.16298155     0.08900
C64         C  0.74049602  0.35394362  0.14853777     0.19800
C65         C  0.73152122  0.37923079  0.13377136    -0.55000
C66         C  0.74135827  0.36511248  0.13281970     0.09000
C67         C  0.71211626  0.36448100  0.15199843    -0.54600
C68         C  0.72180810  0.35034709  0.15096375     0.09500
H69         H  0.73776747  0.38949424  0.17345923     0.14100
H70         H  0.74822183  0.34231694  0.14779336    -0.00200
H71         H  0.73111045  0.38880408  0.12404062     0.14400
H72         H  0.69858375  0.36400979  0.15319483     0.14100
C73         C  0.11967166  0.73555429  0.65779957     0.85900
C74         C  0.13272867  0.74965180  0.65793264    -0.54300
C75         C  0.13286241  0.75920839  0.64362564     0.08900
C76         C  0.11951099  0.75383560  0.63045602     0.19800
C77         C  0.10306846  0.74445657  0.65427525    -0.55000
C78         C  0.10267965  0.75408304  0.64006068     0.09000
C79         C  0.12356794  0.72561456  0.64180041    -0.54600
C80         C  0.12334562  0.73492991  0.62741952     0.09500
H81         H  0.14151821  0.75176994  0.66812029     0.14100
H82         H  0.11955731  0.76145069  0.61877621    -0.00200
H83         H  0.09266402  0.74359778  0.66291682     0.14400
H84         H  0.12591671  0.71211787  0.64182650     0.14100
C85         C  0.72510337  0.13388888  0.38851118     0.85900
C86         C  0.73308304  0.11656160  0.38521038    -0.54300
C87         C  0.74285741  0.11558545  0.37111368     0.08900
C88         C  0.74331073  0.13248388  0.36139053     0.19800
C89         C  0.74010482  0.14602088  0.38860985    -0.55000
C90         C  0.74960537  0.14540464  0.37439084     0.09000
C91         C  0.71550885  0.13825782  0.37230822    -0.54600
C92         C  0.72496072  0.13741924  0.35816392     0.09500
H93         H  0.73159325  0.10637151  0.39409369     0.14100
H94         H  0.75048165  0.13249482  0.34958491    -0.00200
H95         H  0.74334328  0.15425664  0.39891135     0.14400
H96         H  0.70229899  0.14158322  0.37201732     0.14100
C97         C  0.60967957  0.13702144  0.74296523     0.85900
C98         C  0.61444133  0.12077917  0.75255865    -0.54300
C99         C  0.62978066  0.12132202  0.76035932     0.08900
C100        C  0.63897738  0.13814684  0.75787794     0.19800
C101        C  0.61131459  0.15111110  0.75602345    -0.55000
C102        C  0.62653432  0.15168839  0.76383389     0.09000
C103        C  0.62439204  0.13962703  0.73098523    -0.54600
C104        C  0.63971387  0.14035386  0.73868464     0.09500
H105        H  0.60662303  0.10973208  0.75327548     0.14100
H106        H  0.65139236  0.13888651  0.76417767    -0.00200
H107        H  0.60126430  0.15991613  0.75886481     0.14400
H108        H  0.62278986  0.14044288  0.71745079     0.14100
C109        C  0.09339181  0.36542157  0.77074507     0.85900
C110        C  0.09740244  0.38069911  0.75965331    -0.54300
C111        C  0.11235644  0.37958888  0.75163056     0.08900
C112        C  0.12213613  0.36327773  0.75535019     0.19800
C113        C  0.09482078  0.35025573  0.75887330    -0.55000
C114        C  0.10983201  0.34905116  0.75079503     0.09000
C115        C  0.10855588  0.36387038  0.78260146    -0.54600
C116        C  0.12359255  0.36272560  0.77464196     0.09500
H117        H  0.08933948  0.39149950  0.75771639     0.14100
H118        H  0.13432980  0.36248780  0.74878803    -0.00200
H119        H  0.08481961  0.34117755  0.75716242     0.14400
H120        H  0.10747885  0.36401701  0.79619460     0.14100
C121        C  0.34099168  0.76360843  0.11259471     0.85900
C122        C  0.35788391  0.75422534  0.11416672    -0.54300
C123        C  0.36007946  0.74546636  0.12887311     0.08900
C124        C  0.34514549  0.74738170  0.14094482     0.19800
C125        C  0.32789492  0.74986857  0.11568981    -0.55000
C126        C  0.32994278  0.74144423  0.13056525     0.09000
C127        C  0.34026482  0.77483542  0.12816599    -0.54600
C128        C  0.34233639  0.76650670  0.14298734     0.09500
H129        H  0.36720514  0.75405394  0.10444557     0.14100
H130        H  0.34650260  0.74064894  0.15307476    -0.00200
H131        H  0.31786498  0.74708154  0.10684681     0.14400
H132        H  0.33814322  0.78835964  0.12749870     0.14100
C133        C  0.71832653  0.62450738  0.12920693     0.85900
C134        C  0.73028895  0.62516331  0.11408509    -0.54300
C135        C  0.73974261  0.63953777  0.11325305     0.08900
C136        C  0.73644469  0.65186109  0.12788133     0.19800
C137        C  0.72978944  0.62710064  0.14450817    -0.55000
C138        C  0.73935311  0.64123534  0.14379497     0.09000
C139        C  0.70807132  0.64078981  0.12772066    -0.54600
C140        C  0.71742904  0.65508287  0.12716085     0.09500
H141        H  0.73162336  0.61516177  0.10499594     0.14100
H142        H  0.74388010  0.66362116  0.12758887    -0.00200
H143        H  0.73095772  0.61796562  0.15461781     0.14400
H144        H  0.69446697  0.64102690  0.12745732     0.14100
C145        C  0.37583465  0.75118033  0.86517449     0.85900
C146        C  0.37078946  0.76184873  0.84967633    -0.54300
C147        C  0.35500576  0.76859295  0.85050315     0.08900
C148        C  0.34570874  0.76410167  0.86662845     0.19800
C149        C  0.37317759  0.76326719  0.88008582    -0.55000
C150        C  0.35736496  0.77002542  0.88088353     0.09000
C151        C  0.36184769  0.73811954  0.86668982    -0.54600
C152        C  0.34612178  0.74479833  0.86734725     0.09500
H153        H  0.37896848  0.76470843  0.83931431     0.14100
H154        H  0.33288195  0.76947027  0.86716756    -0.00200
H155        H  0.38293617  0.76610336  0.88920753     0.14400
H156        H  0.36423011  0.72462706  0.86662650     0.14100
C157        C  0.73130157  0.61195772  0.86214139     0.85900
C158        C  0.74455415  0.61304420  0.84819537    -0.54300
C159        C  0.75424033  0.62718393  0.84895924     0.08900
C160        C  0.74983916  0.63899545  0.86365198     0.19800
C161        C  0.74130739  0.61373474  0.87857266    -0.55000
C162        C  0.75108760  0.62782879  0.87943860     0.09000
C163        C  0.72143836  0.62858190  0.86043708    -0.54600
C164        C  0.73107228  0.64267927  0.86151189     0.09500
H165        H  0.74588261  0.60404842  0.83806359     0.14100
H166        H  0.75749900  0.65060910  0.86423353    -0.00200
H167        H  0.74085440  0.60437319  0.88849355     0.14400
H168        H  0.70790006  0.62919287  0.85914483     0.14100
C169        C  0.83961775  0.39801615  0.73847276     0.85900
C170        C  0.82375231  0.39582397  0.74916803    -0.54300
C171        C  0.82376943  0.38156100  0.75887823     0.08900
C172        C  0.83959216  0.37055697  0.75664618     0.19800
C173        C  0.85409654  0.39685128  0.75117275    -0.55000
C174        C  0.85417747  0.38258102  0.76083652     0.09000
C175        C  0.84075605  0.38174943  0.72826428    -0.54600
C176        C  0.84097283  0.36738127  0.73762104     0.09500
H177        H  0.81345628  0.40469518  0.74946809     0.14100
H178        H  0.83962045  0.35888732  0.76426239    -0.00200
H179        H  0.86358664  0.40654732  0.75213171     0.14400
H180        H  0.84168894  0.38164168  0.71465471     0.14100
C181        C  0.61407329  0.86490673  0.74975059     0.85900
C182        C  0.61920857  0.84858675  0.75908763    -0.54300
C183        C  0.63488336  0.84920004  0.76620273     0.08900
C184        C  0.64412953  0.86587289  0.76306564     0.19800
C185        C  0.61648058  0.87887030  0.76286662    -0.55000
C186        C  0.63217342  0.87952045  0.76977537     0.09000
C187        C  0.62807689  0.86762976  0.73703778    -0.54600
C188        C  0.64371342  0.86826456  0.74388303     0.09500
H189        H  0.61116062  0.83780399  0.76084211     0.14100
H190        H  0.65689630  0.86626864  0.76867494    -0.00200
H191        H  0.60667481  0.88785581  0.76597050     0.14400
H192        H  0.62578460  0.86904569  0.72363830     0.14100
C193        C  0.71733917  0.86861527  0.38561744     0.85900
C194        C  0.70658115  0.86683953  0.36965781    -0.54300
C195        C  0.71546813  0.86686784  0.35506626     0.08900
C196        C  0.73451102  0.86837134  0.35779802     0.19800
C197        C  0.73002199  0.85393894  0.38435476    -0.55000
C198        C  0.73911303  0.85383468  0.36984697     0.09000
C199        C  0.72777366  0.88450741  0.38282783    -0.54600
C200        C  0.73684044  0.88444932  0.36836217     0.09500
H201        H  0.69301300  0.86606487  0.36989088     0.14100
H202        H  0.74170844  0.86840386  0.34594528    -0.00200
H203        H  0.73144754  0.84406796  0.39362231     0.14400
H204        H  0.72828704  0.89471931  0.39190418     0.14100
C205        C  0.84924821  0.73337417  0.60969954     0.85900
C206        C  0.84798223  0.72426357  0.62674206    -0.54300
C207        C  0.84829754  0.73482087  0.64026598     0.08900
C208        C  0.84972754  0.75349542  0.63568073     0.19800
C209        C  0.83469139  0.74611217  0.61002986    -0.55000
C210        C  0.83487144  0.75675219  0.62359659     0.09000
C211        C  0.86507019  0.74413485  0.61113678    -0.54600
C212        C  0.86547492  0.75468897  0.62470581     0.09500
H213        H  0.84666716  0.71080567  0.62837970     0.14100
H214        H  0.85002674  0.76176379  0.64687876    -0.00200
H215        H  0.82495531  0.74636129  0.60045169     0.14400
H216        H  0.87488552  0.74364137  0.60179716     0.14100
C217        C  0.62209994  0.73970944  0.87053133     0.85900
C218        C  0.62404190  0.75169174  0.88558534    -0.54300
C219        C  0.63864980  0.76065140  0.88585660     0.08900
C220        C  0.64996608  0.75702987  0.87054861     0.19800
C221        C  0.62408658  0.75123979  0.85526044    -0.55000
C222        C  0.63865740  0.76031582  0.85494193     0.09000
C223        C  0.63796033  0.72886632  0.87097164    -0.54600
C224        C  0.65249215  0.73775111  0.87095913     0.09500
H225        H  0.61468258  0.75347729  0.89514501     0.14100
H226        H  0.66196143  0.76400164  0.87068058    -0.00200
H227        H  0.61435535  0.75228090  0.84573887     0.14400
H228        H  0.63772754  0.71517179  0.87117377     0.14100
C229        C  0.74599297  0.35986962  0.88980246     0.85900
C230        C  0.73356316  0.37474339  0.88791308    -0.54300
C231        C  0.72550404  0.37558264  0.87267613     0.08900
C232        C  0.73105535  0.36155912  0.86046946     0.19800
C233        C  0.73568176  0.34420662  0.88529486    -0.55000
C234        C  0.72767935  0.34510105  0.87007228     0.09000
C235        C  0.75797206  0.36222067  0.87503693    -0.54600
C236        C  0.75028748  0.36301031  0.85968217     0.09500
H237        H  0.73157264  0.38423443  0.89741316     0.14100
H238        H  0.72486053  0.36203102  0.84796911    -0.00200
H239        H  0.73398807  0.33380713  0.89396887     0.14400
H240        H  0.77146018  0.36311358  0.87660803     0.14100
C241        C  0.85154448  0.62809632  0.73312437     0.85900
C242        C  0.86717283  0.62897777  0.74459542    -0.54300
C243        C  0.86759992  0.64268513  0.75502776     0.08900
C244        C  0.85206727  0.65419788  0.75326996     0.19800
C245        C  0.83685957  0.62875958  0.74543828    -0.55000
C246        C  0.83715596  0.64230618  0.75602117     0.09000
C247        C  0.85118254  0.64509017  0.72409101    -0.54600
C248        C  0.85143467  0.65869291  0.73449382     0.09500
H249        H  0.87683216  0.61944132  0.74518682     0.14100
H250        H  0.85210124  0.66540833  0.76160544    -0.00200
H251        H  0.82754596  0.61887791  0.74633173     0.14400
H252        H  0.85090895  0.64629658  0.71049276     0.14100
C253        C  0.36009549  0.87067051  0.74414875     0.85900
C254        C  0.35935527  0.88630466  0.75537432    -0.54300
C255        C  0.34511873  0.88779531  0.76472475     0.08900
C256        C  0.33257275  0.87330070  0.76160336     0.19800
C257        C  0.35694747  0.85570436  0.75602131    -0.55000
C258        C  0.34266498  0.85719480  0.76514727     0.09000
C259        C  0.34408150  0.87160075  0.73337810    -0.54600
C260        C  0.32969407  0.87294622  0.74244861     0.09500
H261        H  0.36937008  0.89549188  0.75561476     0.14100
H262        H  0.32086476  0.87403474  0.76897827    -0.00200
H263        H  0.36486868  0.84463871  0.75713995     0.14400
H264        H  0.34403736  0.87050773  0.71977727     0.14100
C265        C  0.75335172  0.85380322  0.64018734     0.85900
C266        C  0.74198476  0.85507272  0.65566907    -0.54300
C267        C  0.73263001  0.86954682  0.65629197     0.08900
C268        C  0.73543271  0.88153348  0.64136956     0.19800
C269        C  0.74138068  0.85618305  0.62520580    -0.55000
C270        C  0.73192742  0.87057562  0.62580044     0.09000
C271        C  0.76370719  0.86997309  0.64090583    -0.54600
C272        C  0.75448280  0.88447534  0.64153501     0.09500
H273        H  0.74105057  0.84558944  0.66535762     0.14100
H274        H  0.72782975  0.89327581  0.64195063    -0.00200
H275        H  0.74012557  0.84694886  0.61519991     0.14400
H276        H  0.77731166  0.86991471  0.64105906     0.14100
O277        O  0.86364119  0.65728322  0.46348572    -0.73500
O278        O  0.86642362  0.62026427  0.49793826    -0.74500
O279        O  0.86465951  0.62109815  0.46250589    -0.63100
O280        O  0.86532120  0.65579601  0.49915490    -0.71500
O281        O  0.83761188  0.65470882  0.50022827    -0.71100
O282        O  0.83690915  0.62063975  0.46317304    -0.62300
O283        O  0.83866845  0.61910175  0.49836103    -0.74800
O284        O  0.83594826  0.65643320  0.46477221    -0.73600
Cu285      Cu  0.86599381  0.63867757  0.48065382     1.04600
Cu286      Cu  0.83633878  0.63774819  0.48162406     1.04300
C287        C  0.84928741  0.66286398  0.45883423     0.92700
C288        C  0.85293759  0.61382608  0.50352106     0.91800
C289        C  0.85072324  0.61496698  0.45745187     0.84000
C290        C  0.85151737  0.66047645  0.50573611     0.90300
O291        O  0.86212311  0.52945837  0.64051654    -0.73500
O292        O  0.86240092  0.48947498  0.60962446    -0.74500
O293        O  0.86359250  0.52493222  0.60531598    -0.63100
O294        O  0.86125352  0.49402531  0.64489711    -0.71500
O295        O  0.83353465  0.49426653  0.64312366    -0.71100
O296        O  0.83586902  0.52643152  0.60439120    -0.62300
O297        O  0.83471297  0.49094272  0.60768572    -0.74800
O298        O  0.83436211  0.52978961  0.63972368    -0.73600
Cu299      Cu  0.86331129  0.50944721  0.62513266     1.04600
Cu300      Cu  0.83365432  0.51038490  0.62368598     1.04300
C301        C  0.84816696  0.53586537  0.64510928     0.92700
C302        C  0.84855970  0.48397276  0.60365944     0.91800
C303        C  0.85014163  0.53070197  0.59866782     0.84000
C304        C  0.84704237  0.48912267  0.65021042     0.90300
O305        O  0.64089307  0.11406602  0.49361684    -0.73500
O306        O  0.60610597  0.11339375  0.53044824    -0.74500
O307        O  0.60514181  0.11306960  0.49458212    -0.63100
O308        O  0.64183446  0.11414919  0.52957474    -0.71500
O309        O  0.64065603  0.14206241  0.52932699    -0.71100
O310        O  0.60480102  0.14100463  0.49400472    -0.62300
O311        O  0.60519754  0.14129945  0.52951460    -0.74800
O312        O  0.64017094  0.14198610  0.49382540    -0.73600
Cu313      Cu  0.62353892  0.11265600  0.51206271     1.04600
Cu314      Cu  0.62268896  0.14250729  0.51168621     1.04300
C315        C  0.64600358  0.12821440  0.48791229     0.92700
C316        C  0.60002748  0.12740457  0.53563662     0.91800
C317        C  0.59924456  0.12688718  0.48869419     0.84000
C318        C  0.64698205  0.12837574  0.53504307     0.90300
O319        O  0.46545891  0.12214218  0.62806613    -0.73500
O320        O  0.50072182  0.12397740  0.66370285    -0.74500
O321        O  0.46524642  0.12557872  0.66363288    -0.63100
O322        O  0.50095069  0.12084363  0.62828493    -0.71500
O323        O  0.50194186  0.14866963  0.62611598    -0.71100
O324        O  0.46608999  0.15334662  0.66081586    -0.62300
O325        O  0.50155447  0.15182415  0.66160121    -0.74800
O326        O  0.46613632  0.14991363  0.62518200    -0.73600
Cu327      Cu  0.48302120  0.12218903  0.64601040     1.04600
Cu328      Cu  0.48393201  0.15191582  0.64333090     1.04300
C329        C  0.46028148  0.13556163  0.62082354     0.92700
C330        C  0.50682935  0.13810582  0.66826613     0.91800
C331        C  0.46008847  0.14026788  0.66785896     0.84000
C332        C  0.50728210  0.13409023  0.62180446     0.90300
O333        O  0.13991989  0.51259432  0.66297787    -0.73500
O334        O  0.13865400  0.47809334  0.62598610    -0.74500
O335        O  0.13953545  0.51396868  0.62712566    -0.63100
O336        O  0.13923949  0.47687849  0.66151488    -0.71500
O337        O  0.11148220  0.47793112  0.66173988    -0.71100
O338        O  0.11178669  0.51481520  0.62745489    -0.62300
O339        O  0.11089699  0.47893909  0.62642914    -0.74800
O340        O  0.11215787  0.51319612  0.66294102    -0.73600
Cu341      Cu  0.14034122  0.49539660  0.64435999     1.04600
Cu342      Cu  0.11065225  0.49627570  0.64459316     1.04300
C343        C  0.12613560  0.51810573  0.66900315     0.92700
C344        C  0.12448424  0.47278708  0.62066043     0.91800
C345        C  0.12570050  0.52030946  0.62189117     0.84000
C346        C  0.12525369  0.47159767  0.66708887     0.90300
O347        O  0.13815781  0.61420132  0.52443411    -0.73500
O348        O  0.13811951  0.64852249  0.48726762    -0.74500
O349        O  0.13847697  0.64988093  0.52300486    -0.63100
O350        O  0.13779657  0.61260911  0.48861032    -0.71500
O351        O  0.11006991  0.61319072  0.48826343    -0.71100
O352        O  0.11074733  0.65003207  0.52348022    -0.62300
O353        O  0.11038742  0.64925223  0.48767300    -0.74800
O354        O  0.11041070  0.61413897  0.52422284    -0.73600
Cu355      Cu  0.13907459  0.63128203  0.50580769     1.04600
Cu356      Cu  0.10942996  0.63166121  0.50589338     1.04300
C357        C  0.12432826  0.60881717  0.53030868     0.92700
C358        C  0.12424611  0.65442487  0.48165394     0.91800
C359        C  0.12476007  0.65576317  0.52882239     0.84000
C360        C  0.12387537  0.60699975  0.48291845     0.90300
O361        O  0.50603294  0.85892140  0.66860063    -0.73500
O362        O  0.47189051  0.85873837  0.63187884    -0.74500
O363        O  0.50714584  0.85987437  0.63313067    -0.63100
O364        O  0.47057058  0.85824105  0.66742497    -0.71500
O365        O  0.47021360  0.88616819  0.66833395    -0.71100
O366        O  0.50563740  0.88780872  0.63329807    -0.62300
O367        O  0.47024477  0.88663233  0.63267251    -0.74800
O368        O  0.50586049  0.88684438  0.66921841    -0.73600
Cu369      Cu  0.48894764  0.85799866  0.65028500     1.04600
Cu370      Cu  0.48798148  0.88786130  0.65094283     1.04300
C371        C  0.51154622  0.87272684  0.67466637     0.92700
C372        C  0.46566695  0.87252627  0.62636183     0.91800
C373        C  0.51187503  0.87415961  0.62752926     0.84000
C374        C  0.46452734  0.87200480  0.67322150     0.90300
O375        O  0.60292584  0.86464682  0.52947626    -0.73500
O376        O  0.63761331  0.86466809  0.49384938    -0.74500
O377        O  0.63831952  0.86568051  0.52935934    -0.63100
O378        O  0.60228262  0.86378993  0.49392136    -0.71500
O379        O  0.60177353  0.89170060  0.49289654    -0.71100
O380        O  0.63752643  0.89360815  0.52914289    -0.62300
O381        O  0.63734727  0.89259414  0.49310130    -0.74800
O382        O  0.60195924  0.89257851  0.52893883    -0.73600
Cu383      Cu  0.62031931  0.86377650  0.51169878     1.04600
Cu384      Cu  0.61961045  0.89363334  0.51101213     1.04300
C385        C  0.59693999  0.87853778  0.53491460     0.92700
C386        C  0.64289341  0.87847228  0.48765816     0.91800
C387        C  0.64357901  0.87982362  0.53495719     0.84000
C388        C  0.59650620  0.87743821  0.48756281     0.90300
O389        O  0.63510376  0.48520884  0.16115493    -0.73500
O390        O  0.59955540  0.52078456  0.16208332    -0.74500
O391        O  0.59979289  0.48496034  0.16365652    -0.63100
O392        O  0.63484401  0.52112167  0.15931764    -0.71500
O393        O  0.63223593  0.51977542  0.13161344    -0.71100
O394        O  0.59857911  0.48307655  0.13587044    -0.62300
O395        O  0.59700343  0.51882400  0.13439787    -0.74800
O396        O  0.63366060  0.48406934  0.13335095    -0.73600
Cu397      Cu  0.61742523  0.50307370  0.16253272     1.04600
Cu398      Cu  0.61529192  0.50141734  0.13285573     1.04300
C399        C  0.63988451  0.47884116  0.14724195     0.92700
C400        C  0.59260772  0.52543723  0.14834942     0.91800
C401        C  0.59390569  0.47810664  0.15033288     0.84000
C402        C  0.63887940  0.52632296  0.14469510     0.90300
O403        O  0.49728484  0.65751063  0.15791094    -0.73500
O404        O  0.46151442  0.62210910  0.16088822    -0.74500
O405        O  0.49719473  0.62179065  0.16053724    -0.63100
O406        O  0.46162757  0.65791675  0.15827154    -0.71500
O407        O  0.46061721  0.65474327  0.13060281    -0.71100
O408        O  0.49740888  0.62046096  0.13271571    -0.62300
O409        O  0.46187705  0.61916829  0.13320640    -0.74800
O410        O  0.49614927  0.65598548  0.13012800    -0.73600
Cu411      Cu  0.47942939  0.63989980  0.16038389     1.04600
Cu412      Cu  0.47899735  0.63752590  0.13071297     1.04300
C413        C  0.50231184  0.66242579  0.14352195     0.92700
C414        C  0.45608827  0.61496294  0.14752558     0.91800
C415        C  0.50309166  0.61562036  0.14695985     0.84000
C416        C  0.45530271  0.66179885  0.14398507     0.90300
O417        O  0.47812035  0.66359726  0.84717314    -0.73500
O418        O  0.51075965  0.62490936  0.84490101    -0.74500
O419        O  0.47511707  0.62786053  0.84464637    -0.63100
O420        O  0.51375019  0.66037493  0.84752537    -0.71500
O421        O  0.51397396  0.65776322  0.87524001    -0.71100
O422        O  0.47439690  0.62697143  0.87246020    -0.62300
O423        O  0.50984814  0.62244509  0.87260734    -0.74800
O424        O  0.47861037  0.66244314  0.87498413    -0.73600
Cu425      Cu  0.49442072  0.64426663  0.84508915     1.04600
Cu426      Cu  0.49418427  0.64233650  0.87477338     1.04300
C427        C  0.47324225  0.66921475  0.86138780     0.92700
C428        C  0.51554435  0.61759638  0.85841941     0.91800
C429        C  0.46855522  0.62239648  0.85818942     0.84000
C430        C  0.52018005  0.66392449  0.86185368     0.90300
O431        O  0.64104582  0.51288853  0.84304038    -0.73500
O432        O  0.60229791  0.48058336  0.83990170    -0.74500
O433        O  0.60555691  0.51638514  0.84141486    -0.63100
O434        O  0.63797352  0.47709548  0.84150685    -0.71500
O435        O  0.63564277  0.47571968  0.86921897    -0.71100
O436        O  0.60533056  0.51617966  0.86925748    -0.62300
O437        O  0.60059471  0.48089795  0.86768114    -0.74800
O438        O  0.64028890  0.51131112  0.87081980    -0.73600
Cu439      Cu  0.62178128  0.49676442  0.84046336     1.04600
Cu440      Cu  0.62046416  0.49596072  0.87017456     1.04300
C441        C  0.64668919  0.51730761  0.85745577     0.92700
C442        C  0.59514053  0.47587461  0.85341723     0.91800
C443        C  0.60048970  0.52260172  0.85532740     0.84000
C444        C  0.64164679  0.47002399  0.85549205     0.90300
C445        C  0.61239875  0.14101278  0.26403788     0.85900
C446        C  0.61243644  0.15505779  0.25077816    -0.54300
C447        C  0.62688763  0.15603448  0.24174509     0.08900
C448        C  0.64035832  0.14310107  0.24724388     0.19800
C449        C  0.61689048  0.12499968  0.25423306    -0.55000
C450        C  0.63147512  0.12596325  0.24536933     0.09000
C451        C  0.62777823  0.14468501  0.27493788    -0.54600
C452        C  0.64245518  0.14574827  0.26637119     0.09500
H453        H  0.60214943  0.16365244  0.24847194     0.14100
H454        H  0.65227265  0.14398326  0.24024484    -0.00200
H455        H  0.60873574  0.11409847  0.25386150     0.14400
H456        H  0.62711704  0.14588606  0.28851122     0.14100
C457        C  0.60638824  0.87472462  0.25784883     0.85900
C458        C  0.62248399  0.87345107  0.26836841    -0.54300
C459        C  0.63672723  0.87221809  0.25921804     0.08900
C460        C  0.63379515  0.87252544  0.24010910     0.19800
C461        C  0.60933645  0.88998265  0.24638209    -0.55000
C462        C  0.62373855  0.88895007  0.23721111     0.09000
C463        C  0.60691520  0.85954530  0.24598862    -0.54600
C464        C  0.62123059  0.85808968  0.23671406     0.09500
H465        H  0.62263319  0.87349689  0.28202033     0.14100
H466        H  0.64561009  0.87173060  0.23291102    -0.00200
H467        H  0.60128258  0.90097181  0.24573362     0.14400
H468        H  0.59652312  0.85083897  0.24501111     0.14100
O469        O  0.64058894  0.98804395  0.88442936    -0.73500
O470        O  0.63976829  0.02194314  0.84764541    -0.74500
O471        O  0.63951037  0.98657465  0.84920368    -0.63100
O472        O  0.64086925  0.02336978  0.88288251    -0.71500
O473        O  0.66862377  0.02364284  0.88217372    -0.71100
O474        O  0.66725157  0.98546864  0.84870298    -0.62300
O475        O  0.66749649  0.02176583  0.84651455    -0.74800
O476        O  0.66835031  0.98781222  0.88455268    -0.73600
Cu477      Cu  0.63930178  0.00500042  0.86604448     1.04600
Cu478      Cu  0.66897903  0.00464795  0.86542686     1.04300
C479        C  0.65444390  0.98258963  0.89044861     0.92700
C480        C  0.65332788  0.02735301  0.84126784     0.91800
C481        C  0.65300824  0.97996575  0.84375187     0.84000
C482        C  0.65481509  0.02941653  0.88786931     0.90300
O483        O  0.62733813  0.88823731  0.01989460    -0.73500
O484        O  0.62919801  0.85298847  0.98330927    -0.74500
O485        O  0.62497692  0.85249783  0.01874991    -0.63100
O486        O  0.63129846  0.88888080  0.98457905    -0.71500
O487        O  0.65887835  0.88652398  0.98711813    -0.71100
O488        O  0.65247603  0.85089860  0.02256219    -0.62300
O489        O  0.65669787  0.85083204  0.98675358    -0.74800
O490        O  0.65497481  0.88656782  0.02231137    -0.73600
Cu491      Cu  0.62724128  0.87066916  0.00149249     1.04600
Cu492      Cu  0.65670082  0.86856786  0.00480437     1.04300
C493        C  0.64104775  0.89318455  0.02664158     0.92700
C494        C  0.64325364  0.84642054  0.97918746     0.91800
C495        C  0.63767307  0.84621725  0.02637047     0.84000
C496        C  0.64600058  0.89361385  0.98054837     0.90300
C497        C  0.59743490  0.26472744  0.86060432     0.85900
C498        C  0.60114213  0.25247202  0.84605170    -0.54300
C499        C  0.61653151  0.24477708  0.84706473     0.08900
C500        C  0.62684551  0.25013733  0.86265578     0.19800
C501        C  0.59998466  0.25395502  0.87641568    -0.55000
C502        C  0.61532864  0.24637795  0.87762335     0.09000
C503        C  0.61217636  0.27698071  0.86056189    -0.54600
C504        C  0.62760306  0.26954411  0.86169144     0.09500
H505        H  0.59227829  0.24934619  0.83621634     0.14100
H506        H  0.63929597  0.24395244  0.86368535    -0.00200
H507        H  0.59044854  0.25258425  0.88596542     0.14400
H508        H  0.61040510  0.29051383  0.85945467     0.14100
O509        O  0.62684486  0.15720149  0.01667164    -0.73500
O510        O  0.63237700  0.12627541  0.97754717    -0.74500
O511        O  0.63225244  0.12231663  0.01284561    -0.63100
O512        O  0.62667473  0.16117742  0.98124466    -0.71500
O513        O  0.65417275  0.16473909  0.98058718    -0.71100
O514        O  0.65944880  0.12748613  0.01499321    -0.62300
O515        O  0.65993613  0.12942039  0.97932772    -0.74800
O516        O  0.65405162  0.16277239  0.01635833    -0.73600
Cu517      Cu  0.62859377  0.14162999  0.99704132     1.04600
Cu518      Cu  0.65788539  0.14627943  0.99782240     1.04300
C519        C  0.63957104  0.16484731  0.02271830     0.92700
C520        C  0.64710386  0.12270469  0.97247540     0.91800
C521        C  0.64659949  0.11894325  0.01922727     0.84000
C522        C  0.63945233  0.16884427  0.97553772     0.90300
O523        O  0.63344287  0.02780269  0.11817504    -0.73500
O524        O  0.63150185  0.99354974  0.15515754    -0.74500
O525        O  0.63301248  0.02907172  0.15372890    -0.63100
O526        O  0.63161549  0.99226400  0.11962630    -0.71500
O527        O  0.65934193  0.99077254  0.11987665    -0.71100
O528        O  0.66072998  0.02794227  0.15472070    -0.62300
O529        O  0.65923944  0.99177992  0.15541276    -0.74800
O530        O  0.66116849  0.02664070  0.11878333    -0.73600
Cu531      Cu  0.63147605  0.01075011  0.13667669     1.04600
Cu532      Cu  0.66112499  0.00927279  0.13724282     1.04300
C533        C  0.64758421  0.03257278  0.11251021     0.92700
C534        C  0.64503631  0.98699718  0.16088067     0.91800
C535        C  0.64689149  0.03434873  0.15973413     0.84000
C536        C  0.64517475  0.98563411  0.11431933     0.90300
C537        C  0.60678796  0.26509196  0.13610852     0.85900
C538        C  0.60762726  0.25331622  0.12074252    -0.54300
C539        C  0.62137887  0.24297551  0.12051249     0.08900
C540        C  0.63322589  0.24554211  0.13562732     0.19800
C541        C  0.60840579  0.25335639  0.15135165    -0.55000
C542        C  0.62215016  0.24307091  0.15108708     0.09000
C543        C  0.62343317  0.27464613  0.13550487    -0.54600
C544        C  0.63722335  0.26442791  0.13540880     0.09500
H545        H  0.59883428  0.25365255  0.11036532     0.14100
H546        H  0.64455315  0.23739674  0.13571643    -0.00200
H547        H  0.59918195  0.25296759  0.16129552     0.14400
H548        H  0.62429229  0.28830510  0.13559732     0.14100
O549        O  0.33051215  0.89347055  0.98118873    -0.73500
O550        O  0.33460872  0.85680951  0.01490728    -0.74500
O551        O  0.33662382  0.85862556  0.97978004    -0.63100
O552        O  0.32843670  0.89156968  0.01638522    -0.71500
O553        O  0.30116123  0.88656824  0.01537135    -0.71100
O554        O  0.30930949  0.85466149  0.97659001    -0.62300
O555        O  0.30751812  0.85131089  0.01244878    -0.74800
O556        O  0.30298647  0.89010777  0.97965152    -0.73600
Cu557      Cu  0.33341091  0.87528680  0.99811231     1.04600
Cu558      Cu  0.30420814  0.87048776  0.99591493     1.04300
C559        C  0.31628342  0.89773440  0.97511608     0.92700
C560        C  0.32185638  0.84820306  0.01908951     0.91800
C561        C  0.32440552  0.85146395  0.97229189     0.84000
C562        C  0.31370323  0.89411691  0.02197105     0.90300
O563        O  0.34208735  0.99341260  0.85043664    -0.73500
O564        O  0.33634834  0.03112954  0.88311517    -0.74500
O565        O  0.33619594  0.99571739  0.88528491    -0.63100
O566        O  0.34201390  0.02923367  0.84820515    -0.71500
O567        O  0.31445476  0.02996384  0.84451105    -0.71100
O568        O  0.30891347  0.99474187  0.88003608    -0.62300
O569        O  0.30878204  0.03030452  0.87957867    -0.74800
O570        O  0.31483923  0.99392425  0.84483226    -0.73600
Cu571      Cu  0.34011163  0.01237734  0.86685703     1.04600
Cu572      Cu  0.31078529  0.01222753  0.86198809     1.04300
C573        C  0.32940248  0.98757140  0.84255232     0.92700
C574        C  0.32171500  0.03636916  0.88689889     0.91800
C575        C  0.32166999  0.98995448  0.88858465     0.84000
C576        C  0.32903925  0.03533386  0.84089620     0.90300
C577        C  0.36717247  0.85958951  0.26294669     0.85900
C578        C  0.36555151  0.84525228  0.24994967    -0.54300
C579        C  0.35081382  0.84544682  0.24107021     0.08900
C580        C  0.33899735  0.86007399  0.24586935     0.19800
C581        C  0.36430331  0.87573559  0.25262952    -0.55000
C582        C  0.34960384  0.87609996  0.24368483     0.09000
C583        C  0.35146511  0.85782881  0.27374714    -0.54600
C584        C  0.33677305  0.85804485  0.26491179     0.09500
H585        H  0.37501624  0.83578286  0.24756663     0.14100
H586        H  0.32699676  0.86013302  0.23873868    -0.00200
H587        H  0.37316875  0.88606632  0.25255721     0.14400
H588        H  0.35194848  0.85613436  0.28728395     0.14100
O589        O  0.30760453  0.97960617  0.16303865    -0.73500
O590        O  0.30297494  0.01530988  0.12676792    -0.74500
O591        O  0.30091914  0.97932535  0.12775101    -0.63100
O592        O  0.30941295  0.01586332  0.16200999    -0.71500
O593        O  0.33655105  0.01455935  0.15648811    -0.71100
O594        O  0.32835450  0.97710267  0.12415592    -0.62300
O595        O  0.33009421  0.01255964  0.12164973    -0.74800
O596        O  0.33502976  0.97919323  0.15885249    -0.73600
Cu597      Cu  0.30421428  0.99759014  0.14509521     1.04600
Cu598      Cu  0.33338639  0.99579503  0.14012225     1.04300
C599        C  0.32220877  0.97384862  0.16664120     0.92700
C600        C  0.31595305  0.01945020  0.11841199     0.91800
C601        C  0.31347827  0.97232176  0.12069113     0.84000
C602        C  0.32434557  0.02113968  0.16446069     0.90300
O603        O  0.33244606  0.11845215  0.02794589    -0.73500
O604        O  0.33625642  0.15330384  0.99188056    -0.74500
O605        O  0.33597011  0.15396874  0.02764725    -0.63100
O606        O  0.33265863  0.11813471  0.99248357    -0.71500
O607        O  0.30511910  0.12175273  0.99124122    -0.71100
O608        O  0.30830905  0.15638245  0.02796540    -0.62300
O609        O  0.30874436  0.15721941  0.99197473    -0.74800
O610        O  0.30478003  0.12063751  0.02701655    -0.73600
Cu611      Cu  0.33526570  0.13590177  0.01005307     1.04600
Cu612      Cu  0.30574988  0.13913065  0.00958125     1.04300
C613        C  0.31806425  0.11374071  0.03298770     0.92700
C614        C  0.32316377  0.16053364  0.98595160     0.91800
C615        C  0.32269976  0.16070823  0.03357164     0.84000
C616        C  0.31843594  0.11452215  0.98603062     0.90300
C617        C  0.35359636  0.26917870  0.87940781     0.85900
C618        C  0.35293295  0.25594862  0.89354141    -0.54300
C619        C  0.33928858  0.24549754  0.89265959     0.08900
C620        C  0.32746951  0.24947632  0.87767445     0.19800
C621        C  0.35247614  0.25874157  0.86325936    -0.55000
C622        C  0.33880227  0.24855096  0.86208434     0.09000
C623        C  0.33683094  0.27847237  0.88056618    -0.54600
C624        C  0.32321468  0.26827685  0.87961048     0.09500
H625        H  0.36210080  0.25495423  0.90354918     0.14100
H626        H  0.31620258  0.24142360  0.87678878    -0.00200
H627        H  0.36207689  0.25925339  0.85370051     0.14400
H628        H  0.33578098  0.29209176  0.88165676     0.14100
C629        C  0.12101870  0.60845872  0.26357296     0.85900
C630        C  0.10529176  0.61176695  0.25271896    -0.54300
C631        C  0.10543103  0.62680448  0.24418032     0.08900
C632        C  0.12167335  0.63699481  0.24714813     0.19800
C633        C  0.13558948  0.60990544  0.25135508    -0.55000
C634        C  0.13612625  0.62477604  0.24275668     0.09000
C635        C  0.12233331  0.62409271  0.27478824    -0.54600
C636        C  0.12294728  0.63892801  0.26629106     0.09500
H637        H  0.09490395  0.60314808  0.25178166     0.14100
H638        H  0.12211722  0.64923025  0.24045419    -0.00200
H639        H  0.14511826  0.60016512  0.25022731     0.14400
H640        H  0.12307293  0.62347843  0.28841006     0.14100
C641        C  0.84173420  0.61040652  0.25279076     0.85900
C642        C  0.82888479  0.61167612  0.23829710    -0.54300
C643        C  0.82968390  0.62648538  0.22955457     0.08900
C644        C  0.84331761  0.63857414  0.23591861     0.19800
C645        C  0.85863307  0.61342286  0.24432729    -0.55000
C646        C  0.85975435  0.62828306  0.23570462     0.09000
C647        C  0.83857628  0.62631088  0.26336982    -0.54600
C648        C  0.83946696  0.64106698  0.25459858     0.09500
H649        H  0.81957720  0.60224905  0.23532390     0.14100
H650        H  0.84365068  0.65053466  0.22878538    -0.00200
H651        H  0.86879969  0.60434652  0.24523314     0.14400
H652        H  0.83633749  0.62585200  0.27679493     0.14100
O653        O  0.96683787  0.67007178  0.88002923    -0.73500
O654        O  0.00278760  0.66854936  0.84468427    -0.74500
O655        O  0.96688545  0.66786583  0.84442678    -0.63100
O656        O  0.00230091  0.67101636  0.88016102    -0.71500
O657        O  0.00363103  0.64310367  0.88131280    -0.71100
O658        O  0.96734551  0.63998021  0.84638681    -0.62300
O659        O  0.00265416  0.64062438  0.84609759    -0.74800
O660        O  0.96837014  0.64221433  0.88195379    -0.73600
Cu661      Cu  0.98464440  0.67037583  0.86219919     1.04600
Cu662      Cu  0.98548540  0.64053615  0.86396468     1.04300
C663        C  0.96227339  0.65626571  0.88685181     0.92700
C664        C  0.00854986  0.65421838  0.84004856     0.91800
C665        C  0.96137314  0.65346723  0.83987204     0.84000
C666        C  0.00863412  0.65754648  0.88632818     0.90300
O667        O  0.86804730  0.66485019  0.01990447    -0.73500
O668        O  0.83394994  0.66141474  0.98248374    -0.74500
O669        O  0.83283973  0.66199284  0.01828236    -0.63100
O670        O  0.86922821  0.66470441  0.98425025    -0.71500
O671        O  0.87137377  0.63683208  0.98410806    -0.71100
O672        O  0.83551460  0.63417861  0.01917340    -0.62300
O673        O  0.83612920  0.63356244  0.98360430    -0.74800
O674        O  0.87084958  0.63703063  0.01972107    -0.73600
Cu675      Cu  0.85091821  0.66421197  0.00121139     1.04600
Cu676      Cu  0.85355412  0.63443589  0.00165930     1.04300
C677        C  0.87484226  0.65140611  0.02570018     0.92700
C678        C  0.82966120  0.64682932  0.97716252     0.91800
C679        C  0.82855242  0.64776554  0.02432332     0.84000
C680        C  0.87597825  0.65123167  0.97865252     0.90300
C681        C  0.22558540  0.65459087  0.88800263     0.85900
C682        C  0.23649818  0.63852263  0.88668107    -0.54300
C683        C  0.24554118  0.63719449  0.87216323     0.08900
C684        C  0.24304229  0.65243180  0.86039624     0.19800
C685        C  0.23793330  0.66908929  0.88563586    -0.55000
C686        C  0.24716946  0.66792484  0.87131130     0.09000
C687        C  0.21499996  0.65446513  0.87189467    -0.54600
C688        C  0.22406242  0.65353464  0.85752580     0.09500
H689        H  0.23733940  0.62905614  0.89633873     0.14100
H690        H  0.25009791  0.65191968  0.84847602    -0.00200
H691        H  0.23961522  0.67910286  0.89479493     0.14400
H692        H  0.20140868  0.65520286  0.87181923     0.14100
O693        O  0.13387025  0.64524958  0.98546152    -0.73500
O694        O  0.09917208  0.64369453  0.02142291    -0.74500
O695        O  0.09853360  0.64568159  0.98602327    -0.63100
O696        O  0.13455933  0.64304614  0.02082010    -0.71500
O697        O  0.13477303  0.67088867  0.02314140    -0.71100
O698        O  0.09930597  0.67360813  0.98681030    -0.62300
O699        O  0.09908031  0.67162270  0.02248596    -0.74800
O700        O  0.13484195  0.67310180  0.98740980    -0.73600
Cu701      Cu  0.11652146  0.64348385  0.00338558     1.04600
Cu702      Cu  0.11700401  0.67331192  0.00504061     1.04300
C703        C  0.13992167  0.65935036  0.98077224     0.92700
C704        C  0.09349823  0.65745208  0.02754317     0.91800
C705        C  0.09333072  0.65996392  0.98071130     0.84000
C706        C  0.14037553  0.65640523  0.02757622     0.90300
O707        O  0.96535885  0.63958356  0.12482069    -0.73500
O708        O  0.00286586  0.63658521  0.15806912    -0.74500
O709        O  0.96748942  0.63690914  0.15999789    -0.63100
O710        O  0.00053876  0.63942328  0.12272556    -0.71500
O711        O  0.00150667  0.66722299  0.12555194    -0.71100
O712        O  0.96688833  0.66478341  0.16187540    -0.62300
O713        O  0.00287626  0.66434334  0.16113348    -0.74800
O714        O  0.96591884  0.66749839  0.12613135    -0.73600
Cu715      Cu  0.98406873  0.63720570  0.14137178     1.04600
Cu716      Cu  0.98430134  0.66698009  0.14379542     1.04300
C717        C  0.95982985  0.65391233  0.11998956     0.92700
C718        C  0.00891953  0.64983155  0.16486293     0.91800
C719        C  0.96161726  0.65035991  0.16657859     0.84000
C720        C  0.00629215  0.65370405  0.11824780     0.90300
C721        C  0.22309213  0.64152472  0.12375549     0.85900
C722        C  0.23754295  0.65398735  0.12662756    -0.54300
C723        C  0.24606229  0.65150998  0.14131890     0.08900
C724        C  0.23961491  0.63679740  0.15188053     0.19800
C725        C  0.23158163  0.62412132  0.12516069    -0.55000
C726        C  0.24028491  0.62145408  0.13988542     0.09000
C727        C  0.21236623  0.64306963  0.13951703    -0.54600
C728        C  0.22090205  0.64071006  0.15422278     0.09500
H729        H  0.24116822  0.66384901  0.11802527     0.14100
H730        H  0.24638921  0.63530275  0.16398268    -0.00200
H731        H  0.23114997  0.61508199  0.11495257     0.14400
H732        H  0.19900064  0.64566191  0.13902010     0.14100
O733        O  0.86413095  0.37578202  0.03227157    -0.73500
O734        O  0.82727749  0.37312052  0.99737526    -0.74500
O735        O  0.82871188  0.37349769  0.03302528    -0.63100
O736        O  0.86248508  0.37563673  0.99669008    -0.71500
O737        O  0.86468486  0.34773806  0.99684023    -0.71100
O738        O  0.83047306  0.34560069  0.03330165    -0.62300
O739        O  0.82926278  0.34525471  0.99748217    -0.74800
O740        O  0.86596517  0.34790069  0.03227425    -0.73600
Cu741      Cu  0.84555456  0.37546780  0.01485736     1.04600
Cu742      Cu  0.84763064  0.34564507  0.01499540     1.04300
C743        C  0.87102490  0.36220106  0.03764072     0.92700
C744        C  0.82259413  0.35877578  0.99173666     0.91800
C745        C  0.82427329  0.35930937  0.03902849     0.84000
C746        C  0.86894914  0.36207201  0.99101131     0.90300
O747        O  0.95438856  0.38057131  0.88931831    -0.73500
O748        O  0.98720419  0.38107509  0.85189221    -0.74500
O749        O  0.95163498  0.38177329  0.85403463    -0.63100
O750        O  0.98950381  0.37978408  0.88728443    -0.71500
O751        O  0.98903438  0.35185641  0.88636702    -0.71100
O752        O  0.95150787  0.35384423  0.85244420    -0.62300
O753        O  0.98684698  0.35312844  0.85097485    -0.74800
O754        O  0.95366527  0.35264965  0.88796392    -0.73600
Cu755      Cu  0.97068917  0.38177909  0.87061024     1.04600
Cu756      Cu  0.97022435  0.35189393  0.86937932     1.04300
C757        C  0.94893830  0.36648825  0.89466183     0.92700
C758        C  0.99246299  0.36718013  0.84571785     0.91800
C759        C  0.94550502  0.36815241  0.84807681     0.84000
C760        C  0.99520043  0.36552225  0.89219612     0.90300
O761        O  0.97295359  0.35085451  0.12704782    -0.73500
O762        O  0.01010858  0.34924514  0.16125135    -0.74500
O763        O  0.97479777  0.34988493  0.16249347    -0.63100
O764        O  0.00833039  0.35042649  0.12541581    -0.71500
O765        O  0.00935518  0.37831950  0.12677142    -0.71100
O766        O  0.97413868  0.37783458  0.16277705    -0.62300
O767        O  0.01009036  0.37712626  0.16275583    -0.74800
O768        O  0.97360041  0.37877559  0.12693039    -0.73600
Cu769      Cu  0.99158461  0.34917984  0.14402914     1.04600
Cu770      Cu  0.99184986  0.37902408  0.14486013     1.04300
C771        C  0.96736407  0.36493492  0.12153251     0.92700
C772        C  0.01583178  0.36283308  0.16767163     0.91800
C773        C  0.96891131  0.36369158  0.16829058     0.84000
C774        C  0.01405588  0.36443754  0.12009598     0.90300
C775        C  0.85599609  0.32794546  0.26473260     0.85900
C776        C  0.84064073  0.32995219  0.25305385    -0.54300
C777        C  0.84033030  0.34468395  0.24412042     0.08900
C778        C  0.85548975  0.35610584  0.24763459     0.19800
C779        C  0.87094649  0.33009000  0.25297727    -0.55000
C780        C  0.87081371  0.34482738  0.24409812     0.09000
C781        C  0.85589756  0.34390442  0.27562532    -0.54600
C782        C  0.85557375  0.35861804  0.26677774     0.09500
H783        H  0.83111976  0.32048283  0.25124155     0.14100
H784        H  0.85536364  0.36811166  0.24048888    -0.00200
H785        H  0.88096974  0.32084307  0.25202863     0.14400
H786        H  0.85582094  0.34354489  0.28926459     0.14100
O787        O  0.13317008  0.38001468  0.01574250    -0.73500
O788        O  0.09749408  0.37942622  0.97974989    -0.74500
O789        O  0.09780712  0.37916279  0.01544965    -0.63100
O790        O  0.13299913  0.38078613  0.98000370    -0.71500
O791        O  0.13380821  0.35290280  0.97871127    -0.71100
O792        O  0.09923762  0.35125991  0.01570603    -0.62300
O793        O  0.09807051  0.35147114  0.98003308    -0.74800
O794        O  0.13459140  0.35212914  0.01463090    -0.73600
Cu795      Cu  0.11535014  0.38080162  0.99770855     1.04600
Cu796      Cu  0.11648147  0.35095909  0.99720726     1.04300
C797        C  0.13936714  0.36607638  0.02102543     0.92700
C798        C  0.09193014  0.36527867  0.97446340     0.91800
C799        C  0.09315851  0.36504527  0.02147079     0.84000
C800        C  0.13893936  0.36727790  0.97360678     0.90300
C801        C  0.24500514  0.39360179  0.86290151     0.85900
C802        C  0.25550973  0.37750673  0.86551025    -0.54300
C803        C  0.24630739  0.36322430  0.86782782     0.08900
C804        C  0.22729983  0.36627696  0.86713639     0.19800
C805        C  0.23340032  0.38927816  0.84792193    -0.55000
C806        C  0.22403342  0.37510526  0.85022095     0.09000
C807        C  0.23321480  0.39424205  0.87811729    -0.54600
C808        C  0.22401657  0.37994574  0.88039897     0.09500
H809        H  0.26910882  0.37746149  0.86556251     0.14100
H810        H  0.21976305  0.35470905  0.86895585    -0.00200
H811        H  0.23196763  0.39681867  0.83669414     0.14400
H812        H  0.23236668  0.40504812  0.88645252     0.14100
C813        C  0.14342145  0.23290826  0.65117998     0.85900
C814        C  0.12566846  0.22567673  0.65099016    -0.54300
C815        C  0.11325808  0.23749281  0.65039418     0.08900
C816        C  0.11964993  0.25569383  0.65049061     0.19800
C817        C  0.14396279  0.24456610  0.63590166    -0.55000
C818        C  0.13165789  0.25659656  0.63541575     0.09000
C819        C  0.14372769  0.24499650  0.66639013    -0.54600
C820        C  0.13121888  0.25683401  0.66600757     0.09500
H821        H  0.12310823  0.21223798  0.65076958     0.14100
H822        H  0.10952081  0.26531607  0.65035332    -0.00200
H823        H  0.15316992  0.24296560  0.62606663     0.14400
H824        H  0.15259491  0.24437758  0.67672153     0.14100
C825        C  0.87725597  0.24821173  0.65027468     0.85900
C826        C  0.87747874  0.26081900  0.63559510    -0.54300
C827        C  0.86271290  0.26927749  0.63293811     0.08900
C828        C  0.84923940  0.26491014  0.64601115     0.19800
C829        C  0.87222537  0.25878805  0.66548955    -0.55000
C830        C  0.85769018  0.26771263  0.66332499     0.09000
C831        C  0.86205734  0.23708901  0.64644941    -0.54600
C832        C  0.84740864  0.24572097  0.64439994     0.09500
H833        H  0.88810318  0.26270996  0.62758168     0.14100
H834        H  0.83716982  0.27168124  0.64434862    -0.00200
H835        H  0.87998152  0.25971633  0.67671176     0.14400
H836        H  0.86278977  0.22343431  0.64563751     0.14100
O837        O  0.00085795  0.84337964  0.62328022    -0.73500
O838        O  0.96614047  0.88019008  0.62710329    -0.74500
O839        O  0.00178980  0.87897727  0.62688248    -0.63100
O840        O  0.96520323  0.84466494  0.62353806    -0.71500
O841        O  0.96509756  0.84241005  0.65128983    -0.71100
O842        O  0.00253903  0.87573347  0.65453415    -0.62300
O843        O  0.96691488  0.87788328  0.65483515    -0.74800
O844        O  0.00064700  0.84022189  0.65093146    -0.73600
Cu845      Cu  0.98348935  0.86189514  0.62423308     1.04600
Cu846      Cu  0.98381174  0.85896088  0.65384942     1.04300
C847        C  0.00626130  0.83597212  0.63652829     0.92700
C848        C  0.96102233  0.88487034  0.64156709     0.91800
C849        C  0.00806931  0.88268280  0.64122473     0.84000
C850        C  0.95921003  0.83825860  0.63691780     0.90300
O851        O  0.87143654  0.98653045  0.66179234    -0.73500
O852        O  0.83748570  0.02453223  0.66105905    -0.74500
O853        O  0.83592576  0.98890475  0.66021338    -0.63100
O854        O  0.87311836  0.02238336  0.66283399    -0.71500
O855        O  0.87344223  0.02368887  0.63500481    -0.71100
O856        O  0.83731812  0.98877829  0.63241732    -0.62300
O857        O  0.83807008  0.02430044  0.63323197    -0.74800
O858        O  0.87298773  0.98793864  0.63403781    -0.73600
Cu859      Cu  0.85447798  0.00556644  0.66245876     1.04600
Cu860      Cu  0.85552789  0.00619113  0.63272322     1.04300
C861        C  0.87763012  0.98130600  0.64794534     0.92700
C862        C  0.83220104  0.03018765  0.64692012     0.91800
C863        C  0.83065608  0.98357251  0.64599387     0.84000
C864        C  0.87901893  0.02851051  0.64929836     0.90300
C865        C  0.24832968  0.85792671  0.62064439     0.85900
C866        C  0.23427205  0.84472387  0.62076202    -0.54300
C867        C  0.22436242  0.84543447  0.63464703     0.08900
C868        C  0.22954145  0.85912888  0.64736142     0.19800
C869        C  0.23915360  0.87480442  0.62304866    -0.55000
C870        C  0.22918601  0.87547600  0.63694448     0.09000
C871        C  0.25785189  0.85497351  0.63718352    -0.54600
C872        C  0.24822214  0.85588062  0.65123196     0.09500
H873        H  0.23197167  0.83557240  0.61095665     0.14100
H874        H  0.22166245  0.85952443  0.65876557    -0.00200
H875        H  0.23997100  0.88501090  0.61402321     0.14400
H876        H  0.27135839  0.85336927  0.63772831     0.14100
O877        O  0.14018880  0.01152212  0.63405060    -0.73500
O878        O  0.10455176  0.97639099  0.63372419    -0.74500
O879        O  0.10478842  0.01236830  0.63421441    -0.63100
O880        O  0.13988600  0.97603414  0.63365008    -0.71500
O881        O  0.13988075  0.97525158  0.66149824    -0.71100
O882        O  0.10540818  0.01226279  0.66205218    -0.62300
O883        O  0.10437510  0.97624354  0.66157108    -0.74800
O884        O  0.14080396  0.01113582  0.66189965    -0.73600
Cu885      Cu  0.12229708  0.99408498  0.63296128     1.04600
Cu886      Cu  0.12259527  0.99370221  0.66274171     1.04300
C887        C  0.14620595  0.01686569  0.64795920     0.92700
C888        C  0.09895274  0.97056097  0.64752478     0.91800
C889        C  0.09982213  0.01836652  0.64823886     0.84000
C890        C  0.14543904  0.96990102  0.64745135     0.90300
O891        O  0.01123916  0.15727938  0.66524252    -0.73500
O892        O  0.97672223  0.12061580  0.66590459    -0.74500
O893        O  0.01213002  0.12109179  0.66483142    -0.63100
O894        O  0.97609515  0.15614217  0.66654358    -0.71500
O895        O  0.97468892  0.15625808  0.63871155    -0.71100
O896        O  0.01158832  0.12175035  0.63698346    -0.62300
O897        O  0.97617498  0.12062666  0.63804641    -0.74800
O898        O  0.00969960  0.15766451  0.63742909    -0.73600
Cu899      Cu  0.99415905  0.13873716  0.66660328     1.04600
Cu900      Cu  0.99305082  0.13905649  0.63682682     1.04300
C901        C  0.01539536  0.16373073  0.65116820     0.92700
C902        C  0.97089255  0.11494506  0.65202714     0.91800
C903        C  0.01741187  0.11566001  0.65070993     0.84000
C904        C  0.96969527  0.16177327  0.65291645     0.90300
C905        C  0.25168312  0.12440732  0.62071415     0.85900
C906        C  0.24048106  0.10899618  0.62272000    -0.54300
C907        C  0.23089878  0.10914824  0.63685510     0.08900
C908        C  0.23327975  0.12507839  0.64770799     0.19800
C909        C  0.23972129  0.13962962  0.62172617    -0.55000
C910        C  0.22981346  0.13991916  0.63564403     0.09000
C911        C  0.26181124  0.12536460  0.63712659    -0.54600
C912        C  0.25224617  0.12572467  0.65124928     0.09500
H913        H  0.24009757  0.09890380  0.61350842     0.14100
H914        H  0.22566654  0.12510124  0.65928347    -0.00200
H915        H  0.23955369  0.14985861  0.61278670     0.14400
H916        H  0.27538897  0.12604516  0.63754088     0.14100
O917        O  0.86713283  0.01319299  0.33984471    -0.73500
O918        O  0.82906553  0.98002625  0.34031106    -0.74500
O919        O  0.83138961  0.01587089  0.34181684    -0.63100
O920        O  0.86446808  0.97755482  0.33856136    -0.71500
O921        O  0.86484901  0.97610879  0.36640230    -0.71100
O922        O  0.83363906  0.01519606  0.36957433    -0.62300
O923        O  0.82993787  0.97992670  0.36816098    -0.74800
O924        O  0.86906930  0.01139649  0.36757016    -0.73600
Cu925      Cu  0.84794655  0.99676550  0.33912958     1.04600
Cu926      Cu  0.84943929  0.99567383  0.36885819     1.04300
C927        C  0.87444958  0.01714714  0.35362573     0.92700
C928        C  0.82352822  0.97471867  0.35436369     0.91800
C929        C  0.82716084  0.02147129  0.35626270     0.84000
C930        C  0.86959993  0.97060883  0.35214527     0.90300
O931        O  0.96241121  0.84148190  0.37549324    -0.73500
O932        O  0.99968391  0.87558196  0.37750343    -0.74500
O933        O  0.96395372  0.87705970  0.37449880    -0.63100
O934        O  0.99811242  0.83991669  0.37841423    -0.71500
O935        O  0.00021379  0.83986493  0.35066002    -0.71100
O936        O  0.96564498  0.87569349  0.34673597    -0.62300
O937        O  0.00099396  0.87529902  0.34969896    -0.74800
O938        O  0.96498525  0.84044310  0.34780700    -0.73600
Cu939      Cu  0.98097985  0.85854630  0.37749739     1.04600
Cu940      Cu  0.98305197  0.85779315  0.34781434     1.04300
C941        C  0.95767972  0.83574806  0.36121732     0.92700
C942        C  0.00627149  0.88077263  0.36386706     0.91800
C943        C  0.95911258  0.88192137  0.35993056     0.84000
C944        C  0.00472775  0.83419077  0.36499000     0.90300
O945        O  0.01617392  0.10272614  0.34254534    -0.73500
O946        O  0.97895575  0.13758200  0.34403473    -0.74500
O947        O  0.01471092  0.13850300  0.34474541    -0.63100
O948        O  0.98020575  0.10163002  0.34162658    -0.71500
O949        O  0.97927825  0.10088903  0.36943437    -0.71100
O950        O  0.01522664  0.13547741  0.37245651    -0.62300
O951        O  0.97990901  0.13641360  0.37185164    -0.74800
O952        O  0.01468873  0.10024172  0.37022852    -0.73600
Cu953      Cu  0.99751085  0.12015140  0.34220358     1.04600
Cu954      Cu  0.99723734  0.11817863  0.37189748     1.04300
C955        C  0.02131652  0.09605005  0.35629588     0.92700
C956        C  0.97381133  0.14269561  0.35835794     0.91800
C957        C  0.02065753  0.14247976  0.35915395     0.84000
C958        C  0.97401702  0.09570731  0.35515638     0.90300
C959        C  0.86021218  0.24523770  0.38960636     0.85900
C960        C  0.84588709  0.23256026  0.38704546    -0.54300
C961        C  0.84739849  0.22292290  0.37294318     0.08900
C962        C  0.86304631  0.22663085  0.36254878     0.19800
C963        C  0.87623374  0.23437814  0.38914837    -0.55000
C964        C  0.87778068  0.22463009  0.37500317     0.09000
C965        C  0.86030757  0.25526296  0.37312567    -0.54600
C966        C  0.86184127  0.24561134  0.35906492     0.09500
H967        H  0.83509209  0.23131131  0.39505444     0.14100
H968        H  0.86394853  0.21879670  0.35102531    -0.00200
H969        H  0.88560260  0.23458881  0.39909785     0.14400
H970        H  0.85890982  0.26888246  0.37257731     0.14100
O971        O  0.15172855  0.99442414  0.34946603    -0.73500
O972        O  0.11153304  0.96418883  0.35028233    -0.74500
O973        O  0.11649305  0.99954330  0.34828274    -0.63100
O974        O  0.14650583  0.95914294  0.35125546    -0.71500
O975        O  0.14636719  0.96072133  0.37907002    -0.71100
O976        O  0.11617649  0.00143274  0.37605992    -0.62300
O977        O  0.11094677  0.96599957  0.37806334    -0.74800
O978        O  0.15136636  0.99607051  0.37724974    -0.73600
Cu979      Cu  0.13158367  0.97928665  0.34887897     1.04600
Cu980      Cu  0.13119502  0.98110766  0.37859654     1.04300
C981        C  0.15791703  0.00005587  0.36321657     0.92700
C982        C  0.10491807  0.96023612  0.36429695     0.91800
C983        C  0.11151021  0.00687822  0.36164086     0.84000
C984        C  0.15121851  0.95352953  0.36555838     0.90300
C985        C  0.25812379  0.84250696  0.38301218     0.85900
C986        C  0.24655912  0.85803844  0.38260118    -0.54300
C987        C  0.23493268  0.85805476  0.36992626     0.08900
C988        C  0.23608580  0.84239385  0.35850054     0.19800
C989        C  0.24623199  0.82739707  0.38334042    -0.55000
C990        C  0.23465291  0.82718859  0.37054997     0.09000
C991        C  0.26582783  0.84226853  0.36536376    -0.54600
C992        C  0.25434419  0.84223904  0.35261383     0.09500
H993        H  0.24741396  0.86809475  0.39180257     0.14100
H994        H  0.22692744  0.84251885  0.34796258    -0.00200
H995        H  0.24705642  0.81767641  0.39290069     0.14400
H996        H  0.27908842  0.84333554  0.36282348     0.14100
C997        C  0.12715240  0.24910018  0.39307190     0.85900
C998        C  0.11109989  0.23886382  0.39027389    -0.54300
C999        C  0.11145736  0.22854817  0.37653015     0.08900
C1000       C  0.12771508  0.22999799  0.36634347     0.19800
C1001       C  0.14134309  0.23608565  0.39314114    -0.55000
C1002       C  0.14172475  0.22603222  0.37920143     0.09000
C1003       C  0.12914464  0.25882833  0.37660726    -0.54600
C1004       C  0.12968834  0.24891061  0.36264662     0.09500
H1005       H  0.10019696  0.23977206  0.39822001     0.14100
H1006       H  0.12813001  0.22205979  0.35488883    -0.00200
H1007       H  0.15008321  0.23478172  0.40357597     0.14400
H1008       H  0.13003037  0.27246417  0.37596261     0.14100
C1009       C  0.22615485  0.13186647  0.36613965     0.85900
C1010       C  0.23678915  0.13023295  0.38209872    -0.54300
C1011       C  0.24806371  0.11718643  0.38203565     0.08900
C1012       C  0.24768129  0.10694184  0.36549105     0.19800
C1013       C  0.23880760  0.13302432  0.35176548    -0.55000
C1014       C  0.25009690  0.12002669  0.35131881     0.09000
C1015       C  0.21816982  0.11451396  0.36359727    -0.54600
C1016       C  0.22931958  0.10146380  0.36342105     0.09500
H1017       H  0.23557069  0.13907602  0.39242292     0.14100
H1018       H  0.25657196  0.09617506  0.36502376    -0.00200
H1019       H  0.23874556  0.14300490  0.34247444     0.14400
H1020       H  0.20479714  0.11260597  0.36202122     0.14100
O1021       O  0.34195518  0.84562079  0.52383276    -0.73500
O1022       O  0.38000988  0.84772305  0.49124483    -0.74500
O1023       O  0.37701129  0.84946948  0.52680530    -0.63100
O1024       O  0.34499497  0.84366459  0.48831407    -0.71500
O1025       O  0.34170245  0.87136642  0.48659441    -0.71100
O1026       O  0.37455184  0.87725681  0.52489860    -0.62300
O1027       O  0.37698946  0.87546767  0.48943090    -0.74800
O1028       O  0.33937924  0.87340951  0.52222806    -0.73600
Cu1029     Cu  0.36110102  0.84566622  0.50760631     1.04600
Cu1030     Cu  0.35802636  0.87534508  0.50572668     1.04300
C1031       C  0.33479118  0.85931075  0.52836196     0.92700
C1032       C  0.38442941  0.86188470  0.48508459     0.91800
C1033       C  0.38087812  0.86420421  0.53196722     0.84000
C1034       C  0.33830036  0.85653042  0.48129001     0.90300
O1035       O  0.13777023  0.34035120  0.52973381    -0.73500
O1036       O  0.13693997  0.37421493  0.49290773    -0.74500
O1037       O  0.13600558  0.37546450  0.52847434    -0.63100
O1038       O  0.13858097  0.33884096  0.49435956    -0.71500
O1039       O  0.11084110  0.33788089  0.49337524    -0.71100
O1040       O  0.10824434  0.37435908  0.52807518    -0.62300
O1041       O  0.10915931  0.37370307  0.49242528    -0.74800
O1042       O  0.11004559  0.33868693  0.52898716    -0.73600
Cu1043     Cu  0.13825308  0.35726838  0.51136070     1.04600
Cu1044     Cu  0.10856220  0.35610504  0.51064114     1.04300
C1045       C  0.12414659  0.33433050  0.53538491     0.92700
C1046       C  0.12299966  0.37939176  0.48685137     0.91800
C1047       C  0.12184317  0.38047440  0.53395545     0.84000
C1048       C  0.12510254  0.33252343  0.48845639     0.90300
O1049       O  0.37140307  0.13509023  0.51780748    -0.73500
O1050       O  0.33706698  0.12989208  0.48138378    -0.74500
O1051       O  0.33619870  0.13229258  0.51673751    -0.63100
O1052       O  0.37239555  0.13245857  0.48250229    -0.71500
O1053       O  0.37459048  0.10464729  0.48450084    -0.71100
O1054       O  0.33789394  0.10443834  0.51845244    -0.62300
O1055       O  0.33916144  0.10206140  0.48285622    -0.74800
O1056       O  0.37315495  0.10728838  0.52026929    -0.73600
Cu1057     Cu  0.35419217  0.13336944  0.49951537     1.04600
Cu1058     Cu  0.35629901  0.10361067  0.50157218     1.04300
C1059       C  0.37754552  0.12205595  0.52499401     0.92700
C1060       C  0.33261739  0.11529131  0.47632285     0.91800
C1061       C  0.33135938  0.11838604  0.52309970     0.84000
C1062       C  0.37925355  0.11859092  0.47808094     0.90300
O1063       O  0.86562823  0.37575514  0.48226111    -0.73500
O1064       O  0.86551797  0.34572172  0.52233435    -0.74500
O1065       O  0.86649980  0.34045048  0.48704440    -0.63100
O1066       O  0.86457629  0.38079705  0.51731512    -0.71500
O1067       O  0.83683465  0.37993729  0.51666521    -0.71100
O1068       O  0.83877767  0.33952672  0.48617337    -0.62300
O1069       O  0.83778724  0.34469437  0.52176916    -0.74800
O1070       O  0.83788392  0.37492245  0.48122780    -0.73600
Cu1071     Cu  0.86649195  0.36065480  0.50225392     1.04600
Cu1072     Cu  0.83683056  0.35971290  0.50140706     1.04300
C1073       C  0.85179084  0.38023618  0.47545536     0.92700
C1074       C  0.85176448  0.34074170  0.52867298     0.91800
C1075       C  0.85299626  0.33374221  0.48157631     0.84000
C1076       C  0.85041132  0.38667213  0.52191594     0.90300
C1077       C  0.12926077  0.33224430  0.27002733     0.85900
C1078       C  0.12874141  0.34760345  0.28166863    -0.54300
C1079       C  0.12739149  0.36272903  0.27359199     0.08900
C1080       C  0.12652444  0.36106920  0.25429162     0.19800
C1081       C  0.11351072  0.33381155  0.25893514    -0.55000
C1082       C  0.11172878  0.34892857  0.25082247     0.09000
C1083       C  0.14367110  0.33578484  0.25786618    -0.54600
C1084       C  0.14252768  0.35093644  0.24972761     0.09500
H1085       H  0.12942755  0.34653383  0.29525877     0.14100
H1086       H  0.12544033  0.37343983  0.24791129    -0.00200
H1087       H  0.10467774  0.32357231  0.25741678     0.14400
H1088       H  0.15360231  0.32681912  0.25530246     0.14100
C1089       C  0.21992436  0.36619271  0.12002206     0.85900
C1090       C  0.23256258  0.38053937  0.12248746    -0.54300
C1091       C  0.24155695  0.37962607  0.13716654     0.08900
C1092       C  0.23701353  0.36425675  0.14815589     0.19800
C1093       C  0.23034280  0.35005394  0.12183095    -0.55000
C1094       C  0.23958074  0.34892354  0.13634165     0.09000
C1095       C  0.20921043  0.36693708  0.13577987    -0.54600
C1096       C  0.21781733  0.36545737  0.15060534     0.09500
H1097       H  0.23425882  0.39081924  0.11377120     0.14100
H1098       H  0.24434538  0.36355018  0.16000199    -0.00200
H1099       H  0.23021906  0.34033309  0.11224412     0.14400
H1100       H  0.19570982  0.36843485  0.13505190     0.14100
O1101       O  0.36230834  0.48337120  0.16847027    -0.73500
O1102       O  0.32546664  0.51818862  0.16645934    -0.74500
O1103       O  0.32678669  0.48217153  0.16787253    -0.63100
O1104       O  0.36113536  0.51945148  0.16717694    -0.71500
O1105       O  0.36068253  0.51915569  0.13934462    -0.71100
O1106       O  0.32844600  0.48056820  0.14010241    -0.62300
O1107       O  0.32543282  0.51643830  0.13867445    -0.74800
O1108       O  0.36343352  0.48359727  0.14063998    -0.73600
Cu1109     Cu  0.34389536  0.50086543  0.16850008     1.04600
Cu1110     Cu  0.34446608  0.49992646  0.13875802     1.04300
C1111       C  0.36864398  0.47797341  0.15476622     0.92700
C1112       C  0.31965875  0.52285113  0.15217658     0.91800
C1113       C  0.32271929  0.47510512  0.15400860     0.84000
C1114       C  0.36622303  0.52529172  0.15313679     0.90300
O1115       O  0.83618060  0.47196738  0.37716236    -0.73500
O1116       O  0.83419836  0.50594757  0.33996961    -0.74500
O1117       O  0.83520101  0.47000206  0.34156598    -0.63100
O1118       O  0.83532446  0.50761384  0.37559919    -0.71500
O1119       O  0.86306938  0.50809337  0.37479277    -0.71100
O1120       O  0.86291928  0.47091994  0.34089808    -0.62300
O1121       O  0.86192285  0.50668476  0.33935202    -0.74800
O1122       O  0.86392445  0.47230542  0.37642025    -0.73600
Cu1123     Cu  0.83425632  0.48885914  0.35858254     1.04600
Cu1124     Cu  0.86391398  0.48950773  0.35784349     1.04300
C1125       C  0.85033522  0.46670665  0.38265246     0.92700
C1126       C  0.84771019  0.51186811  0.33388184     0.91800
C1127       C  0.84913288  0.46444359  0.33592942     0.84000
C1128       C  0.84926740  0.51385238  0.38047597     0.90300
O1129       O  0.33313589  0.53460590  0.87325542    -0.73500
O1130       O  0.36580211  0.49649125  0.87257974    -0.74500
O1131       O  0.36857108  0.53225212  0.87229508    -0.63100
O1132       O  0.33045743  0.49900911  0.87326894    -0.71500
O1133       O  0.32991230  0.49884787  0.84544156    -0.71100
O1134       O  0.36737998  0.53261254  0.84448057    -0.62300
O1135       O  0.36546891  0.49668236  0.84472962    -0.74800
O1136       O  0.33193696  0.53474900  0.84542512    -0.73600
Cu1137     Cu  0.34953514  0.51561286  0.87379907     1.04600
Cu1138     Cu  0.34864995  0.51572190  0.84404107     1.04300
C1139       C  0.32728639  0.54070540  0.85957575     0.92700
C1140       C  0.37075098  0.49043068  0.85860850     0.91800
C1141       C  0.37389002  0.53782589  0.85823602     0.84000
C1142       C  0.32427004  0.49352490  0.85945030     0.90300
O1143       O  0.11103752  0.50772412  0.35333936    -0.73500
O1144       O  0.11104807  0.47230512  0.38903166    -0.74500
O1145       O  0.11090021  0.50808422  0.38924058    -0.63100
O1146       O  0.11120426  0.47189951  0.35336954    -0.71500
O1147       O  0.13893283  0.47166234  0.35415720    -0.71100
O1148       O  0.13863830  0.50874966  0.38896265    -0.62300
O1149       O  0.13879224  0.47278482  0.38991824    -0.74800
O1150       O  0.13879202  0.50742858  0.35324880    -0.73600
Cu1151     Cu  0.11009219  0.49002695  0.37123368     1.04600
Cu1152     Cu  0.13975380  0.49015880  0.37159079     1.04300
C1153       C  0.12488236  0.51304757  0.34746938     0.92700
C1154       C  0.12489579  0.46696031  0.39518836     0.91800
C1155       C  0.12470592  0.51418594  0.39472001     0.84000
C1156       C  0.12516143  0.46595159  0.34818352     0.90300
C1157       C  0.37397127  0.13079850  0.26184583     0.85900
C1158       C  0.37022652  0.11579110  0.25018984    -0.54300
C1159       C  0.35432308  0.11563570  0.24367419     0.08900
C1160       C  0.34368557  0.13099363  0.24906847     0.19800
C1161       C  0.37005255  0.14624895  0.25097691    -0.55000
C1162       C  0.35420979  0.14658927  0.24428019     0.09000
C1163       C  0.36004131  0.13035046  0.27491935    -0.54600
C1164       C  0.34414246  0.13044841  0.26846053     0.09500
H1165       H  0.37930714  0.10625606  0.24682915     0.14100
H1166       H  0.33082035  0.13120126  0.24378473    -0.00200
H1167       H  0.37929441  0.15591054  0.24855045     0.14400
H1168       H  0.36276520  0.12936956  0.28826131     0.14100
C1169       C  0.36194478  0.25875568  0.14549000     0.85900
C1170       C  0.35973698  0.24556206  0.15949885    -0.54300
C1171       C  0.34451057  0.23783368  0.15924708     0.08900
C1172       C  0.33274239  0.24389134  0.14510326     0.19800
C1173       C  0.35815252  0.24902357  0.12922122    -0.55000
C1174       C  0.34286681  0.24127657  0.12888774     0.09000
C1175       C  0.34705446  0.27077115  0.14759667    -0.54600
C1176       C  0.33176294  0.26318343  0.14742792     0.09500
H1177       H  0.36917414  0.24209556  0.16870530     0.14100
H1178       H  0.32035160  0.23762553  0.14512312    -0.00200
H1179       H  0.36701226  0.24814803  0.11897961     0.14400
H1180       H  0.34856697  0.28432503  0.14871154     0.14100
O1181       O  0.45909101  0.35414291  0.87700472    -0.73500
O1182       O  0.49595905  0.38736844  0.87177870    -0.74500
O1183       O  0.46056545  0.38950896  0.87398568    -0.63100
O1184       O  0.49431002  0.35171893  0.87450368    -0.71500
O1185       O  0.49267650  0.35033528  0.84672332    -0.71100
O1186       O  0.45777041  0.38679625  0.84639050    -0.62300
O1187       O  0.49332412  0.38619827  0.84406413    -0.74800
O1188       O  0.45709310  0.35124185  0.84937010    -0.73600
Cu1189     Cu  0.47757660  0.37075906  0.87525581     1.04600
Cu1190     Cu  0.47516755  0.36855354  0.84564977     1.04300
C1191       C  0.45216716  0.34746374  0.86415061     0.92700
C1192       C  0.50042361  0.39222996  0.85720559     0.91800
C1193       C  0.45363531  0.39394365  0.86013282     0.84000
C1194       C  0.49888014  0.34509360  0.86062097     0.90300
O1195       O  0.47680136  0.11429199  0.34852904    -0.73500
O1196       O  0.51099580  0.11287658  0.38596973    -0.74500
O1197       O  0.47567273  0.11103960  0.38400599    -0.63100
O1198       O  0.51216018  0.11583287  0.35042428    -0.71500
O1199       O  0.51121758  0.14365321  0.35295946    -0.71100
O1200       O  0.47349453  0.13889638  0.38546692    -0.62300
O1201       O  0.50875164  0.14062368  0.38852961    -0.74800
O1202       O  0.47603047  0.14218673  0.35019759    -0.73600
Cu1203     Cu  0.49398746  0.11253804  0.36714052     1.04600
Cu1204     Cu  0.49234970  0.14230619  0.36938564     1.04300
C1205       C  0.47111246  0.12849628  0.34337257     0.92700
C1206       C  0.51500841  0.12658434  0.39340255     0.91800
C1207       C  0.46870284  0.12423853  0.38995359     0.84000
C1208       C  0.51741578  0.13040199  0.34625710     0.90300
O1209       O  0.49960168  0.34838942  0.13411744    -0.73500
O1210       O  0.46328812  0.38306172  0.13698198    -0.74500
O1211       O  0.49883663  0.38380841  0.13669249    -0.63100
O1212       O  0.46406139  0.34754061  0.13437750    -0.71500
O1213       O  0.46432021  0.34586384  0.16216594    -0.71100
O1214       O  0.49984874  0.38158362  0.16443320    -0.62300
O1215       O  0.46418607  0.38153085  0.16478184    -0.74800
O1216       O  0.50010303  0.34606516  0.16186318    -0.73600
Cu1217     Cu  0.48141638  0.36576145  0.13459374     1.04600
Cu1218     Cu  0.48210464  0.36367410  0.16428942     1.04300
C1219       C  0.50581934  0.34192741  0.14748155     0.92700
C1220       C  0.45795577  0.38779998  0.15132133     0.91800
C1221       C  0.50504145  0.38827756  0.15084866     0.84000
C1222       C  0.45854280  0.34106273  0.14792756     0.90300
O1223       O  0.47190109  0.88063884  0.38479643    -0.73500
O1224       O  0.50651304  0.88365384  0.34883505    -0.74500
O1225       O  0.47117854  0.88056844  0.34909102    -0.63100
O1226       O  0.50712506  0.88352056  0.38470742    -0.71500
O1227       O  0.51030604  0.85575648  0.38415969    -0.71100
O1228       O  0.47313369  0.85270830  0.34961594    -0.62300
O1229       O  0.50847130  0.85577755  0.34831955    -0.74800
O1230       O  0.47497343  0.85285245  0.38553181    -0.73600
Cu1231     Cu  0.48910990  0.88304401  0.36683464     1.04600
Cu1232     Cu  0.49180820  0.85329157  0.36687557     1.04300
C1233       C  0.46822227  0.86635942  0.39112900     0.92700
C1234       C  0.51281099  0.87018614  0.34269829     0.91800
C1235       C  0.46638622  0.86615596  0.34376090     0.84000
C1236       C  0.51427474  0.87013911  0.39022149     0.90300
C1237       C  0.83972873  0.74234076  0.32866853     0.85900
C1238       C  0.82510731  0.75466252  0.33115363    -0.54300
C1239       C  0.82571239  0.76357851  0.34588791     0.08900
C1240       C  0.84131920  0.75927136  0.35680593     0.19800
C1241       C  0.85527967  0.75355836  0.33025998    -0.55000
C1242       C  0.85618692  0.76236466  0.34498174     0.09000
C1243       C  0.83999418  0.73134480  0.34441599    -0.54600
C1244       C  0.84074716  0.73998360  0.35922382     0.09500
H1245       H  0.81553452  0.75660678  0.32160868     0.14100
H1246       H  0.84209442  0.76634901  0.36878548    -0.00200
H1247       H  0.86463987  0.75488373  0.32057153     0.14400
H1248       H  0.83989073  0.71767415  0.34372981     0.14100
C1249       C  0.40434441  0.27864926  0.15762763    -0.11400
C1250       C  0.40620326  0.29066187  0.14482180     0.05700
C1251       C  0.39438936  0.29100765  0.13167270    -0.10200
C1252       C  0.38069333  0.28013118  0.13173367    -0.11800
C1253       C  0.37835672  0.26855573  0.14490933    -0.01600
C1254       C  0.39063187  0.26775131  0.15770778    -0.10700
C1255       C  0.41992486  0.30329075  0.14559141     0.05800
H1256       H  0.39530326  0.30018297  0.12167213     0.07700
H1257       H  0.37147898  0.28119794  0.12173254     0.11200
H1258       H  0.38961661  0.25927467  0.16820445     0.11400
H1259       H  0.41339969  0.27782391  0.16778666     0.07700
C1260       C  0.42475405  0.31045643  0.16104183    -0.11400
C1261       C  0.43733484  0.32262395  0.16180180    -0.10700
C1262       C  0.44533704  0.32801737  0.14712017    -0.01600
C1263       C  0.44048386  0.32093340  0.13165274    -0.11800
C1264       C  0.42796831  0.30867582  0.13090340    -0.10200
H1265       H  0.41858259  0.30690007  0.17255557     0.07700
H1266       H  0.44065581  0.32794909  0.17389406     0.11400
H1267       H  0.44642528  0.32479172  0.12010813     0.11100
H1268       H  0.42468932  0.30331638  0.11881915     0.07700
C1269       C  0.33357709  0.17029541  0.20797234    -0.11400
C1270       C  0.34072680  0.18636960  0.20965000     0.05700
C1271       C  0.35106436  0.18960495  0.22362405    -0.10200
C1272       C  0.35478673  0.17690670  0.23520186    -0.11800
C1273       C  0.34836234  0.16056094  0.23310300    -0.01600
C1274       C  0.33727886  0.15755894  0.21964376    -0.10700
C1275       C  0.33863244  0.19940996  0.19636544     0.05800
H1276       H  0.35688701  0.20179510  0.22526014     0.07700
H1277       H  0.36300877  0.17986282  0.24565018     0.11200
H1278       H  0.33201130  0.14522732  0.21765416     0.11400
H1279       H  0.32539947  0.16747949  0.19744097     0.07700
C1280       C  0.34008052  0.19506550  0.17928798    -0.11400
C1281       C  0.34091958  0.20762218  0.16697048    -0.10700
C1282       C  0.34030806  0.22466661  0.17154742    -0.01600
C1283       C  0.33797736  0.22904120  0.18841287    -0.11800
C1284       C  0.33702959  0.21653027  0.20070940    -0.10200
H1285       H  0.34157340  0.18202433  0.17555251     0.07700
H1286       H  0.34302366  0.20406572  0.15402189     0.11400
H1287       H  0.33755532  0.24217311  0.19212424     0.11100
H1288       H  0.33567197  0.22026984  0.21371006     0.07700
C1289       C  0.40955389  0.14577072  0.29039090    -0.11400
C1290       C  0.42010993  0.13157598  0.29130576     0.05700
C1291       C  0.41656693  0.11770473  0.28092449    -0.10200
C1292       C  0.40226989  0.11753882  0.27071249    -0.11800
C1293       C  0.39114395  0.13139273  0.27042488    -0.01600
C1294       C  0.39527968  0.14565012  0.28013186    -0.10700
C1295       C  0.43391808  0.13068335  0.30396151     0.05800
H1296       H  0.42462428  0.10669121  0.28103233     0.07700
H1297       H  0.39982106  0.10611237  0.26383892     0.11200
H1298       H  0.38696525  0.15647264  0.28038400     0.11400
H1299       H  0.41176500  0.15664958  0.29829360     0.07700
C1300       C  0.44319899  0.14507888  0.30830758    -0.11400
C1301       C  0.45536196  0.14434228  0.32102485    -0.10700
C1302       C  0.45865287  0.12915557  0.32954691    -0.01600
C1303       C  0.44965335  0.11470116  0.32499509    -0.11800
C1304       C  0.43735892  0.11547930  0.31244843    -0.10200
H1305       H  0.44105681  0.15693483  0.30190466     0.07700
H1306       H  0.46220345  0.15567401  0.32418079     0.11400
H1307       H  0.45180911  0.10285975  0.33143313     0.11100
H1308       H  0.43021734  0.10422953  0.30975404     0.07700
C1309       C  0.39588560  0.45270904  0.87350764    -0.11400
C1310       C  0.40482901  0.44821839  0.85902202     0.05700
C1311       C  0.40232232  0.45773100  0.84428676    -0.10200
C1312       C  0.39118823  0.47139268  0.84407585    -0.11800
C1313       C  0.38248707  0.47597046  0.85864603    -0.01600
C1314       C  0.38495752  0.46648663  0.87335430    -0.10700
C1315       C  0.41695948  0.43391490  0.85941790     0.05800
H1316       H  0.40919409  0.45483798  0.83297448     0.07700
H1317       H  0.38957717  0.47851870  0.83257729     0.11200
H1318       H  0.37827833  0.46958733  0.88474095     0.11400
H1319       H  0.39719772  0.44548984  0.88497521     0.07700
C1320       C  0.42662566  0.43067940  0.87392106    -0.11400
C1321       C  0.43831940  0.41754156  0.87422715    -0.10700
C1322       C  0.44080717  0.40745184  0.85997259    -0.01600
C1323       C  0.43104982  0.41051268  0.84551873    -0.11800
C1324       C  0.41919945  0.42353859  0.84527215    -0.10200
H1325       H  0.42546684  0.43854667  0.88496282     0.07700
H1326       H  0.44566171  0.41551393  0.88554223     0.11400
H1327       H  0.43254209  0.40281571  0.83438833     0.11100
H1328       H  0.41174222  0.42541311  0.83401278     0.07700
C1329       C  0.39566794  0.44099185  0.16836454    -0.11400
C1330       C  0.40610705  0.43891025  0.15434078     0.05700
C1331       C  0.40433905  0.45012109  0.14077096    -0.10200
C1332       C  0.39228081  0.46287208  0.14105457    -0.11800
C1333       C  0.38186502  0.46492592  0.15502151    -0.01600
C1334       C  0.38373532  0.45396048  0.16874707    -0.10700
C1335       C  0.41893035  0.42527478  0.15380350     0.05800
H1336       H  0.41240302  0.44918159  0.12994472     0.07700
H1337       H  0.39117608  0.47121551  0.13033826     0.11200
H1338       H  0.37570629  0.45515257  0.17958610     0.11400
H1339       H  0.39651792  0.43244270  0.17892799     0.07700
C1340       C  0.42788692  0.42058070  0.16835463    -0.11400
C1341       C  0.44046078  0.40828878  0.16760793    -0.10700
C1342       C  0.44444412  0.40054264  0.15227282    -0.01600
C1343       C  0.43536410  0.40505520  0.13777998    -0.11800
C1344       C  0.42267857  0.41717366  0.13855900    -0.10200
H1345       H  0.42548588  0.42669163  0.18025795     0.07700
H1346       H  0.44726166  0.40506970  0.17898732     0.11400
H1347       H  0.43799553  0.39915291  0.12581327     0.11100
H1348       H  0.41577606  0.42015834  0.12718306     0.07700
C1349       C  0.26987194  0.31257776  0.12864761    -0.11400
C1350       C  0.27480393  0.30808960  0.14497338     0.05700
C1351       C  0.26787766  0.31691067  0.15861527    -0.10200
C1352       C  0.25627361  0.32999159  0.15592583    -0.11800
C1353       C  0.25152192  0.33466730  0.13952556    -0.01600
C1354       C  0.25854526  0.32574865  0.12594912    -0.10700
C1355       C  0.28813970  0.29518780  0.14746560     0.05800
H1356       H  0.27145273  0.31367879  0.17136138     0.07700
H1357       H  0.25101495  0.33633238  0.16671005     0.11200
H1358       H  0.25575395  0.32919129  0.11309335     0.11400
H1359       H  0.27529987  0.30632202  0.11787330     0.07700
C1360       C  0.28829866  0.28023690  0.13792084    -0.11400
C1361       C  0.30209259  0.26926435  0.13859075    -0.10700
C1362       C  0.31603098  0.27315896  0.14866829    -0.01600
C1363       C  0.31546465  0.28764304  0.15885205    -0.11800
C1364       C  0.30167499  0.29851508  0.15827440    -0.10200
H1365       H  0.27795074  0.27729971  0.12957275     0.07700
H1366       H  0.30221663  0.25824009  0.13056790     0.11400
H1367       H  0.32592758  0.29083547  0.16695319     0.11100
H1368       H  0.30197822  0.30996676  0.16567523     0.07700
C1369       C  0.27629044  0.41146916  0.13191398    -0.11400
C1370       C  0.27830985  0.41794921  0.14824238     0.05700
C1371       C  0.26847235  0.41118777  0.16119643    -0.10200
C1372       C  0.25683519  0.39837301  0.15779634    -0.11800
C1373       C  0.25471165  0.39221321  0.14137529    -0.01600
C1374       C  0.26475948  0.39875950  0.12856207    -0.10700
C1375       C  0.29040917  0.43193013  0.15132387     0.05800
H1376       H  0.26977601  0.41577553  0.17394179     0.07700
H1377       H  0.24919775  0.39362863  0.16789642     0.11200
H1378       H  0.26362446  0.39413027  0.11581039     0.11400
H1379       H  0.28335392  0.41649950  0.12152748     0.07700
C1380       C  0.30542229  0.43257499  0.14221518    -0.11400
C1381       C  0.31586218  0.44658036  0.14329269    -0.10700
C1382       C  0.31184940  0.46011570  0.15385737    -0.01600
C1383       C  0.29744323  0.45917656  0.16379984    -0.11800
C1384       C  0.28670422  0.44526693  0.16242138    -0.10200
H1385       H  0.30901059  0.42233559  0.13398276     0.07700
H1386       H  0.32712914  0.44685856  0.13580896     0.11400
H1387       H  0.29416367  0.46947761  0.17209729     0.11100
H1388       H  0.27522928  0.44526278  0.16956327     0.07700
C1389       C  0.18304692  0.35703246  0.18153314    -0.11400
C1390       C  0.18959273  0.36323348  0.19664744     0.05700
C1391       C  0.20616271  0.36919697  0.19703410    -0.10200
C1392       C  0.21566296  0.36971093  0.18220449    -0.11800
C1393       C  0.20875836  0.36404895  0.16689884    -0.01600
C1394       C  0.19252245  0.35721037  0.16698059    -0.10700
C1395       C  0.17880619  0.36294058  0.21171790     0.05800
H1396       H  0.21155132  0.37383734  0.20865788     0.07700
H1397       H  0.22815323  0.37490176  0.18266045     0.11200
H1398       H  0.18697976  0.35188857  0.15574536     0.11400
H1399       H  0.17052605  0.35185739  0.18101097     0.07700
C1400       C  0.16239463  0.36936540  0.21070104    -0.11400
C1401       C  0.15088707  0.36624026  0.22344361    -0.10700
C1402       C  0.15543495  0.35645932  0.23742741    -0.01600
C1403       C  0.17224921  0.35103832  0.23897425    -0.11800
C1404       C  0.18382186  0.35426570  0.22624445    -0.10200
H1405       H  0.15827519  0.37619557  0.19963230     0.07700
H1406       H  0.13820854  0.37074238  0.22180799     0.11400
H1407       H  0.17638719  0.34388841  0.24981932     0.11100
H1408       H  0.19639337  0.34917235  0.22731916     0.07700
C1409       C  0.13800449  0.39606258  0.30607632    -0.11400
C1410       C  0.12679976  0.40917438  0.30198944     0.05700
C1411       C  0.11603903  0.40709043  0.28804545    -0.10200
C1412       C  0.11648961  0.39220105  0.27848194    -0.11800
C1413       C  0.12746958  0.37901463  0.28288372    -0.01600
C1414       C  0.13829121  0.38118226  0.29670046    -0.10700
C1415       C  0.12625050  0.42467300  0.31261534     0.05800
H1416       H  0.10732839  0.41699230  0.28451516     0.07700
H1417       H  0.10796313  0.39081307  0.26793646     0.11200
H1418       H  0.14701762  0.37131001  0.30029028     0.11400
H1419       H  0.14632483  0.39713928  0.31681970     0.07700
C1420       C  0.11090955  0.43181966  0.31757425    -0.11400
C1421       C  0.11051143  0.44540874  0.32886992    -0.10700
C1422       C  0.12545119  0.45222235  0.33540226    -0.01600
C1423       C  0.14077210  0.44544153  0.32994048    -0.11800
C1424       C  0.14116168  0.43185853  0.31872746    -0.10200
H1425       H  0.09919832  0.42652069  0.31319029     0.07700
H1426       H  0.09848532  0.45035209  0.33274461     0.11400
H1427       H  0.15252591  0.45044286  0.33455780     0.11100
H1428       H  0.15319179  0.42684297  0.31494997     0.07700
C1429       C  0.83772705  0.40571213  0.43770480    -0.11400
C1430       C  0.85187545  0.41575750  0.43471970     0.05700
C1431       C  0.86619294  0.41341610  0.44485223    -0.10200
C1432       C  0.86626841  0.40155458  0.45778422    -0.11800
C1433       C  0.85195169  0.39193710  0.46106310    -0.01600
C1434       C  0.83772160  0.39402528  0.45082253    -0.10700
C1435       C  0.85156972  0.42888581  0.42138501     0.05800
H1436       H  0.87722295  0.42106856  0.44312528     0.07700
H1437       H  0.87740276  0.40027124  0.46553627     0.11200
H1438       H  0.82657664  0.38663567  0.45295645     0.11400
H1439       H  0.82662131  0.40686640  0.42990863     0.07700
C1440       C  0.86605609  0.43260858  0.41217253    -0.11400
C1441       C  0.86575076  0.44508791  0.39979137    -0.10700
C1442       C  0.85090067  0.45395535  0.39617563    -0.01600
C1443       C  0.83644178  0.45029614  0.40538256    -0.11800
C1444       C  0.83679773  0.43799569  0.41790703    -0.10200
H1445       H  0.87759435  0.42570333  0.41431906     0.07700
H1446       H  0.87706987  0.44757048  0.39283525     0.11400
H1447       H  0.82484067  0.45702994  0.40298899     0.11100
H1448       H  0.82551401  0.43578953  0.42499980     0.07700
C1449       C  0.40935675  0.10433694  0.44441181    -0.11400
C1450       C  0.41719840  0.11957696  0.44018406     0.05700
C1451       C  0.41277031  0.13430527  0.44896390    -0.10200
C1452       C  0.40049734  0.13392736  0.46129088    -0.11800
C1453       C  0.39256298  0.11875980  0.46536613    -0.01600
C1454       C  0.39723792  0.10391729  0.45696895    -0.10700
C1455       C  0.42991403  0.12026397  0.42668853     0.05800
H1456       H  0.41886840  0.14617117  0.44641597     0.07700
H1457       H  0.39728994  0.14552876  0.46770786     0.11200
H1458       H  0.39126263  0.09205215  0.45983617     0.11400
H1459       H  0.41230557  0.09278948  0.43779893     0.07700
C1460       C  0.44116113  0.10681695  0.42413247    -0.11400
C1461       C  0.45354438  0.10791823  0.41188840    -0.10700
C1462       C  0.45508775  0.12258733  0.40218333    -0.01600
C1463       C  0.44369709  0.13586478  0.40447692    -0.11800
C1464       C  0.43113888  0.13464531  0.41645668    -0.10200
H1465       H  0.44071887  0.09562827  0.43187951     0.07700
H1466       H  0.46222083  0.09750418  0.41036212     0.11400
H1467       H  0.44445755  0.14719766  0.39695220     0.11100
H1468       H  0.42239191  0.14502599  0.41769265     0.07700
C1469       C  0.13717745  0.40522544  0.44985125    -0.11400
C1470       C  0.12378129  0.41660107  0.44772827     0.05700
C1471       C  0.10998930  0.41548731  0.45857299    -0.10200
C1472       C  0.10956529  0.40321005  0.47113845    -0.11800
C1473       C  0.12305773  0.39202708  0.47330726    -0.01600
C1474       C  0.13687379  0.39316892  0.46259051    -0.10700
C1475       C  0.12415375  0.42948290  0.43419863     0.05800
H1476       H  0.09960096  0.42424416  0.45750556     0.07700
H1477       H  0.09885405  0.40268496  0.47937720     0.11200
H1478       H  0.14737700  0.38457219  0.46392694     0.11400
H1479       H  0.14783329  0.40548330  0.44153942     0.07700
C1480       C  0.13923323  0.43738388  0.42980525    -0.11400
C1481       C  0.13953606  0.44945018  0.41703721    -0.10700
C1482       C  0.12474326  0.45399162  0.40849636    -0.01600
C1483       C  0.10969082  0.44609407  0.41285546    -0.11800
C1484       C  0.10941160  0.43393790  0.42550051    -0.10200
H1485       H  0.15078173  0.43444476  0.43640260     0.07700
H1486       H  0.15132104  0.45536084  0.41399887     0.11400
H1487       H  0.09809646  0.44922520  0.40641789     0.11100
H1488       H  0.09765041  0.42787628  0.42830471     0.07700
C1489       C  0.41790367  0.87844030  0.45605683    -0.11400
C1490       C  0.42226545  0.86384740  0.44698726     0.05700
C1491       C  0.41456509  0.84852818  0.45117436    -0.10200
C1492       C  0.40265158  0.84784627  0.46388083    -0.11800
C1493       C  0.39794482  0.86250214  0.47254542    -0.01600
C1494       C  0.40577929  0.87779564  0.46861390    -0.10700
C1495       C  0.43433408  0.86462298  0.43285380     0.05800
H1496       H  0.41734565  0.83709681  0.44429787     0.07700
H1497       H  0.39673496  0.83590571  0.46655530     0.11200
H1498       H  0.40249957  0.88927583  0.47520795     0.11400
H1499       H  0.42381660  0.89038808  0.45343720     0.07700
C1500       C  0.43479017  0.87879657  0.42226549    -0.11400
C1501       C  0.44575195  0.87931597  0.40869361    -0.10700
C1502       C  0.45635199  0.86559216  0.40524242    -0.01600
C1503       C  0.45591827  0.85140860  0.41574994    -0.11800
C1504       C  0.44513839  0.85098485  0.42948099    -0.10200
H1505       H  0.42645423  0.88939711  0.42424549     0.07700
H1506       H  0.44579282  0.89040918  0.40077739     0.11400
H1507       H  0.46412715  0.84074476  0.41353415     0.11100
H1508       H  0.44539321  0.84000409  0.43753655     0.07700
C1509       C  0.30115042  0.11823477  0.28484956    -0.11400
C1510       C  0.30221395  0.12362801  0.30164760     0.05700
C1511       C  0.31657010  0.13223723  0.30703111    -0.10200
C1512       C  0.32977758  0.13502953  0.29605799    -0.11800
C1513       C  0.32915562  0.12901073  0.27943547    -0.01600
C1514       C  0.31455711  0.12079658  0.27386567    -0.10700
C1515       C  0.28845151  0.12062436  0.31367726     0.05800
H1516       H  0.31753170  0.13694719  0.31977186     0.07700
H1517       H  0.34052820  0.14189265  0.30070419     0.11200
H1518       H  0.31367024  0.11582651  0.26123629     0.11400
H1519       H  0.29016811  0.11160794  0.28037326     0.07700
C1520       C  0.27181992  0.12451805  0.30934112    -0.11400
C1521       C  0.25923289  0.12370850  0.32142869    -0.10700
C1522       C  0.26300928  0.11883593  0.33803733    -0.01600
C1523       C  0.27944213  0.11399349  0.34208145    -0.11800
C1524       C  0.29206236  0.11496839  0.33005379    -0.10200
H1525       H  0.26868576  0.12890250  0.29682414     0.07700
H1526       H  0.24658215  0.12723294  0.31786713     0.11400
H1527       H  0.28272738  0.11024359  0.35471905     0.11100
H1528       H  0.30476654  0.11168184  0.33365858     0.07700
C1529       C  0.28664712  0.10467154  0.40769195    -0.11400
C1530       C  0.28259517  0.11109657  0.42358012     0.05700
C1531       C  0.26662741  0.11798067  0.42612819    -0.10200
C1532       C  0.25517043  0.11913843  0.41286093    -0.11800
C1533       C  0.25953035  0.11378867  0.39658136    -0.01600
C1534       C  0.27523023  0.10603198  0.39430343    -0.10700
C1535       C  0.29529894  0.11181376  0.43718059     0.05800
H1536       H  0.26311649  0.12272193  0.43837390     0.07700
H1537       H  0.24297297  0.12449407  0.41540648     0.11200
H1538       H  0.27904426  0.10158110  0.38211066     0.11400
H1539       H  0.29891999  0.09929205  0.40545835     0.07700
C1540       C  0.30431638  0.09739671  0.44214696    -0.11400
C1541       C  0.31635013  0.09839481  0.45501644    -0.10700
C1542       C  0.31975566  0.11389962  0.46288861    -0.01600
C1543       C  0.31073783  0.12829067  0.45777537    -0.11800
C1544       C  0.29858512  0.12722940  0.44515066    -0.10200
H1545       H  0.30192534  0.08537013  0.43617876     0.07700
H1546       H  0.32308625  0.08709032  0.45868606     0.11400
H1547       H  0.31301789  0.14041880  0.46357795     0.11100
H1548       H  0.29188655  0.13854318  0.44141376     0.07700
C1549       C  0.20564172  0.17567053  0.36363888    -0.11400
C1550       C  0.19024815  0.17271220  0.37137601     0.05700
C1551       C  0.18675652  0.15670163  0.37774121    -0.10200
C1552       C  0.19843667  0.14370652  0.37618610    -0.11800
C1553       C  0.21353466  0.14621460  0.36749594    -0.01600
C1554       C  0.21721553  0.16257175  0.36175312    -0.10700
C1555       C  0.17794461  0.18640290  0.37318067     0.05800
H1556       H  0.17511317  0.15436253  0.38420750     0.07700
H1557       H  0.19560481  0.13167212  0.38184757     0.11200
H1558       H  0.22911241  0.16545835  0.35609973     0.11400
H1559       H  0.20865260  0.18811069  0.35898947     0.07700
C1560       C  0.18229150  0.20119139  0.38172790    -0.11400
C1561       C  0.17053957  0.21408584  0.38367367    -0.10700
C1562       C  0.15427554  0.21242551  0.37698954    -0.01600
C1563       C  0.15000611  0.19758836  0.36836884    -0.11800
C1564       C  0.16174402  0.18463977  0.36654360    -0.10200
H1565       H  0.19473550  0.20267335  0.38701322     0.07700
H1566       H  0.17428181  0.22543168  0.39022070     0.11400
H1567       H  0.13751108  0.19579381  0.36335238     0.11100
H1568       H  0.15822151  0.17325244  0.35991789     0.07700
C1569       C  0.12196523  0.26268130  0.31787306    -0.11400
C1570       C  0.13374015  0.27570456  0.31634769     0.05700
C1571       C  0.14561184  0.27804774  0.32923557    -0.10200
C1572       C  0.14490080  0.26847415  0.34387082    -0.11800
C1573       C  0.13242709  0.25628653  0.34587521    -0.01600
C1574       C  0.12139982  0.25290966  0.33251378    -0.10700
C1575       C  0.13250330  0.28823501  0.30257870     0.05800
H1576       H  0.15473466  0.28804663  0.32848878     0.07700
H1577       H  0.15362803  0.27116028  0.35401492     0.11200
H1578       H  0.11169172  0.24357510  0.33385182     0.11400
H1579       H  0.11275680  0.26054260  0.30804250     0.07700
C1580       C  0.14694586  0.29447383  0.29487560    -0.11400
C1581       C  0.14595721  0.30815899  0.28384320    -0.10700
C1582       C  0.13041637  0.31585151  0.28004187    -0.01600
C1583       C  0.11599540  0.30944770  0.28781512    -0.11800
C1584       C  0.11698313  0.29567862  0.29869914    -0.10200
H1585       H  0.15911776  0.28912476  0.29785542     0.07700
H1586       H  0.15754359  0.31310801  0.27905485     0.11400
H1587       H  0.10393260  0.31547253  0.28596771     0.11100
H1588       H  0.10570960  0.29149071  0.30486286     0.07700
C1589       C  0.11777275  0.26785156  0.43643961    -0.11400
C1590       C  0.12846392  0.28181818  0.43673645     0.05700
C1591       C  0.13946155  0.28430737  0.42331855    -0.10200
C1592       C  0.13926954  0.27343905  0.40957933    -0.11800
C1593       C  0.12764577  0.26020149  0.40860748    -0.01600
C1594       C  0.11744129  0.25708582  0.42260524    -0.10700
C1595       C  0.12775812  0.29407684  0.45070149     0.05800
H1596       H  0.14793267  0.29491098  0.42320808     0.07700
H1597       H  0.14800477  0.27565483  0.39950032     0.11200
H1598       H  0.10931349  0.24627903  0.42315440     0.11400
H1599       H  0.10965093  0.26523106  0.44693808     0.07700
C1600       C  0.11224736  0.29891444  0.45742066    -0.11400
C1601       C  0.11139979  0.31125322  0.46985290    -0.10700
C1602       C  0.12604476  0.31901788  0.47578903    -0.01600
C1603       C  0.14159265  0.31393756  0.46933069    -0.11800
C1604       C  0.14244094  0.30157436  0.45691314    -0.10200
H1605       H  0.10070102  0.29351430  0.45272749     0.07700
H1606       H  0.09924564  0.31487025  0.47463630     0.11400
H1607       H  0.15310980  0.31963719  0.47373210     0.11100
H1608       H  0.15458810  0.29790996  0.45215118     0.07700
C1609       C  0.29853718  0.84045109  0.40987606    -0.11400
C1610       C  0.29278016  0.84650817  0.42534285     0.05700
C1611       C  0.27568291  0.84989225  0.42729100    -0.10200
C1612       C  0.26456370  0.84766202  0.41385176    -0.11800
C1613       C  0.27038023  0.84282983  0.39787170    -0.01600
C1614       C  0.28749782  0.83866865  0.39626270    -0.10700
C1615       C  0.30454220  0.84916368  0.43950649     0.05800
H1616       H  0.27092921  0.85418232  0.43926729     0.07700
H1617       H  0.25140401  0.85025051  0.41583110     0.11200
H1618       H  0.29252735  0.83387539  0.38465329     0.11400
H1619       H  0.31166161  0.83741046  0.40824813     0.07700
C1620       C  0.31425193  0.83574037  0.44567572    -0.11400
C1621       C  0.32509772  0.83814044  0.45932336    -0.10700
C1622       C  0.32666822  0.85410090  0.46688792    -0.01600
C1623       C  0.31708305  0.86759700  0.46050455    -0.11800
C1624       C  0.30600540  0.86510384  0.44702559    -0.10200
H1625       H  0.31324469  0.82333939  0.44007362     0.07700
H1626       H  0.33233143  0.82748963  0.46389016     0.11400
H1627       H  0.31802654  0.88003711  0.46601832     0.11100
H1628       H  0.29866110  0.87564151  0.44235885     0.07700
C1629       C  0.20395787  0.06451381  0.34845816    -0.11400
C1630       C  0.20764868  0.05231260  0.36073817     0.05700
C1631       C  0.22010033  0.05580152  0.37285520    -0.10200
C1632       C  0.22812692  0.07148096  0.37307857    -0.11800
C1633       C  0.22360920  0.08391105  0.36136054    -0.01600
C1634       C  0.21180543  0.08014244  0.34880920    -0.10700
C1635       C  0.19722117  0.03689241  0.36167661     0.05800
H1636       H  0.22326198  0.04660105  0.38241622     0.07700
H1637       H  0.23712304  0.07423803  0.38294059     0.11200
H1638       H  0.20815996  0.08958630  0.33964708     0.11400
H1639       H  0.19428263  0.06236503  0.33911279     0.07700
C1640       C  0.19082295  0.03150084  0.37715227    -0.11400
C1641       C  0.17854546  0.01900456  0.37773224    -0.10700
C1642       C  0.17240957  0.01165006  0.36284750    -0.01600
C1643       C  0.17960546  0.01627309  0.34748724    -0.11800
C1644       C  0.19188508  0.02873315  0.34691551    -0.10200
H1645       H  0.19457430  0.03761798  0.38873389     0.07700
H1646       H  0.17336167  0.01562928  0.38978943     0.11400
H1647       H  0.17533967  0.01069071  0.33581323     0.11100
H1648       H  0.19679637  0.03241884  0.33483068     0.07700
C1649       C  0.17506854  0.91431111  0.35274814    -0.11400
C1650       C  0.18555402  0.91166626  0.36673113     0.05700
C1651       C  0.18412685  0.92246465  0.38067153    -0.10200
C1652       C  0.17263755  0.93581538  0.38051239    -0.11800
C1653       C  0.16252606  0.93875902  0.36631091    -0.01600
C1654       C  0.16375426  0.92779988  0.35249130    -0.10700
C1655       C  0.19831344  0.89802865  0.36662579     0.05800
H1656       H  0.19193979  0.92058479  0.39169521     0.07700
H1657       H  0.17196656  0.94407782  0.39132108     0.11200
H1658       H  0.15603426  0.92972802  0.34141050     0.11400
H1659       H  0.17596545  0.90623825  0.34181822     0.07700
C1660       C  0.19435896  0.88174302  0.36091280    -0.11400
C1661       C  0.20635593  0.86880796  0.36153724    -0.10700
C1662       C  0.22254223  0.87197223  0.36777618    -0.01600
C1663       C  0.22662566  0.88846640  0.37278151    -0.11800
C1664       C  0.21463411  0.90128906  0.37232456    -0.10200
H1665       H  0.18184486  0.87889890  0.35645849     0.07700
H1666       H  0.20275422  0.85624018  0.35770833     0.11400
H1667       H  0.23911313  0.89151911  0.37713773     0.11100
H1668       H  0.21815101  0.91382158  0.37638190     0.07700
C1669       C  0.87028987  0.28163845  0.41944949    -0.11400
C1670       C  0.85729608  0.28102394  0.43122970     0.05700
C1671       C  0.84552894  0.26799107  0.42994248    -0.10200
C1672       C  0.84649281  0.25608771  0.41700617    -0.11800
C1673       C  0.85927184  0.25692427  0.40488007    -0.01600
C1674       C  0.87133886  0.26968831  0.40660058    -0.10700
C1675       C  0.85603961  0.29397194  0.44473290     0.05800
H1676       H  0.83558646  0.26690022  0.43903883     0.07700
H1677       H  0.83710367  0.24640624  0.41681127     0.11200
H1678       H  0.88139547  0.27069628  0.39761305     0.11400
H1679       H  0.87948927  0.29160067  0.41990978     0.07700
C1680       C  0.87056756  0.30033336  0.45247546    -0.11400
C1681       C  0.86952222  0.31296516  0.46465962    -0.10700
C1682       C  0.85391320  0.31954091  0.46948474    -0.01600
C1683       C  0.83932893  0.31295001  0.46203836    -0.11800
C1684       C  0.84037972  0.30032821  0.44978408    -0.10200
H1685       H  0.88280502  0.29551966  0.44914276     0.07700
H1686       H  0.88100278  0.31770019  0.47018083     0.11400
H1687       H  0.82710762  0.31778712  0.46541650     0.11100
H1688       H  0.82893977  0.29586703  0.44395759     0.07700
C1689       C  0.08012226  0.03829318  0.34403169    -0.11400
C1690       C  0.07601646  0.04779510  0.35833473     0.05700
C1691       C  0.08455071  0.04441404  0.37350544    -0.10200
C1692       C  0.09633288  0.03135866  0.37452525    -0.11800
C1693       C  0.09998567  0.02150116  0.36035319    -0.01600
C1694       C  0.09201438  0.02534182  0.34501716    -0.10700
C1695       C  0.06221544  0.06045730  0.35769085     0.05800
H1696       H  0.08197604  0.05174008  0.38467543     0.07700
H1697       H  0.10242853  0.02885525  0.38646667     0.11200
H1698       H  0.09455873  0.01797603  0.33386258     0.11400
H1699       H  0.07369099  0.04041980  0.33220056     0.07700
C1700       C  0.05954696  0.07062748  0.34342046    -0.11400
C1701       C  0.04610217  0.08203107  0.34275724    -0.10700
C1702       C  0.03515751  0.08357765  0.35640483    -0.01600
C1703       C  0.03788597  0.07347692  0.37065533    -0.11800
C1704       C  0.05116927  0.06201605  0.37125685    -0.10200
H1705       H  0.06793473  0.06988567  0.33282829     0.07700
H1706       H  0.04442760  0.08980832  0.33169485     0.11400
H1707       H  0.02963443  0.07431706  0.38135554     0.11100
H1708       H  0.05258689  0.05414333  0.38227999     0.07700
C1709       C  0.04819550  0.18029592  0.35111761    -0.11400
C1710       C  0.05972604  0.17902514  0.36450773     0.05700
C1711       C  0.05847812  0.16540272  0.37569420    -0.10200
C1712       C  0.04573633  0.15362428  0.37387666    -0.11800
C1713       C  0.03413638  0.15497794  0.36064168    -0.01600
C1714       C  0.03555681  0.16827589  0.34912882    -0.10700
C1715       C  0.07278096  0.19199382  0.36723215     0.05800
H1716       H  0.06739469  0.16381048  0.38588810     0.07700
H1717       H  0.04505075  0.14331920  0.38276127     0.11200
H1718       H  0.02667666  0.16958420  0.33886119     0.11400
H1719       H  0.04872995  0.19074867  0.34241041     0.07700
C1720       C  0.08147146  0.19914051  0.35372426    -0.11400
C1721       C  0.09404853  0.21106284  0.35663009    -0.10700
C1722       C  0.09805103  0.21609398  0.37309358    -0.01600
C1723       C  0.08935700  0.20886802  0.38653798    -0.11800
C1724       C  0.07681491  0.19710777  0.38364894    -0.10200
H1725       H  0.07874633  0.19532425  0.34092992     0.07700
H1726       H  0.10050022  0.21640093  0.34602618     0.11400
H1727       H  0.09237519  0.21207626  0.39942687     0.11100
H1728       H  0.07022875  0.19204464  0.39432685     0.07700
C1729       C  0.93603019  0.17039579  0.34858147    -0.11400
C1730       C  0.93427303  0.17950568  0.36369118     0.05700
C1731       C  0.94634701  0.17704833  0.37643282    -0.10200
C1732       C  0.95924459  0.16528931  0.37450062    -0.11800
C1733       C  0.96070142  0.15588977  0.35963718    -0.01600
C1734       C  0.94919345  0.15881691  0.34652895    -0.10700
C1735       C  0.91974247  0.19113215  0.36646728     0.05800
H1736       H  0.94584793  0.18416963  0.38801275     0.07700
H1737       H  0.96810420  0.16352453  0.38472454     0.11200
H1738       H  0.95001225  0.15172750  0.33493540     0.11400
H1739       H  0.92695449  0.17177371  0.33851273     0.07700
C1740       C  0.91242618  0.20024951  0.35310662    -0.11400
C1741       C  0.89874691  0.21100310  0.35585777    -0.10700
C1742       C  0.89221576  0.21311664  0.37205330    -0.01600
C1743       C  0.89946595  0.20405695  0.38540036    -0.11800
C1744       C  0.91293602  0.19311720  0.38263109    -0.10200
H1745       H  0.91740137  0.19930954  0.34053902     0.07700
H1746       H  0.89351052  0.21793779  0.34534415     0.11400
H1747       H  0.89449038  0.20515127  0.39796683     0.11100
H1748       H  0.91780591  0.18599879  0.39319075     0.07700
C1749       C  0.91825073  0.81164233  0.37189097    -0.11400
C1750       C  0.91406000  0.80443556  0.35627338     0.05700
C1751       C  0.92493797  0.80678920  0.34268935    -0.10200
C1752       C  0.93931043  0.81655301  0.34448489    -0.11800
C1753       C  0.94328386  0.82412179  0.35994884    -0.01600
C1754       C  0.93274612  0.82135022  0.37372237    -0.10700
C1755       C  0.89842917  0.79454988  0.35398510     0.05800
H1756       H  0.92236100  0.80106628  0.33060354     0.07700
H1757       H  0.94722321  0.81832901  0.33365265     0.11200
H1758       H  0.93542869  0.82708673  0.38578262     0.11400
H1759       H  0.91010059  0.81017740  0.38258480     0.07700
C1760       C  0.89270288  0.78371796  0.36666797    -0.11400
C1761       C  0.87856755  0.77369872  0.36399028    -0.10700
C1762       C  0.87001914  0.77418620  0.34856760    -0.01600
C1763       C  0.87537656  0.78536097  0.33609035    -0.11800
C1764       C  0.88934759  0.79551212  0.33880334    -0.10200
H1765       H  0.89947474  0.78253302  0.37843688     0.07700
H1766       H  0.87479803  0.76504578  0.37369470     0.11400
H1767       H  0.86880116  0.78614286  0.32416479     0.11100
H1768       H  0.89310296  0.80404358  0.32893458     0.07700
C1769       C  0.04333108  0.90641634  0.37933497    -0.11400
C1770       C  0.04789979  0.91518859  0.36472907     0.05700
C1771       C  0.03837740  0.91279071  0.34999884    -0.10200
C1772       C  0.02478873  0.90176154  0.34980501    -0.11800
C1773       C  0.02027719  0.89294749  0.36436868    -0.01600
C1774       C  0.02963262  0.89546310  0.37917161    -0.10700
C1775       C  0.06257892  0.92670593  0.36475631     0.05800
H1776       H  0.04135092  0.91955127  0.33860805     0.07700
H1777       H  0.01777155  0.90016925  0.33822523     0.11200
H1778       H  0.02657202  0.88870851  0.39054597     0.11400
H1779       H  0.05053504  0.90777768  0.39082411     0.07700
C1780       C  0.06599982  0.93717874  0.37861991    -0.11400
C1781       C  0.07976232  0.94804875  0.37852862    -0.10700
C1782       C  0.09032223  0.94878714  0.36451597    -0.01600
C1783       C  0.08690702  0.93834634  0.35066683    -0.11800
C1784       C  0.07326580  0.92738213  0.35081785    -0.10200
H1785       H  0.05789772  0.93714839  0.38945690     0.07700
H1786       H  0.08202428  0.95602259  0.38934489     0.11400
H1787       H  0.09492650  0.93848789  0.33976299     0.11100
H1788       H  0.07119956  0.91928066  0.34006185     0.07700
C1789       C  0.90848272  0.04686227  0.33875263    -0.11400
C1790       C  0.91834959  0.04880251  0.35336387     0.05700
C1791       C  0.91364074  0.03998081  0.36792000    -0.10200
C1792       C  0.89931110  0.02995715  0.36801772    -0.11800
C1793       C  0.88942942  0.02814391  0.35347530    -0.01600
C1794       C  0.89427789  0.03656555  0.33878167    -0.10700
C1795       C  0.93310933  0.06035325  0.35368714     0.05800
H1796       H  0.92108409  0.04066287  0.37930593     0.07700
H1797       H  0.89609559  0.02344112  0.37948579     0.11200
H1798       H  0.88695977  0.03538657  0.32734101     0.11400
H1799       H  0.91146630  0.05357751  0.32734995     0.07700
C1800       C  0.94280677  0.06320999  0.33924084    -0.11400
C1801       C  0.95619618  0.07458801  0.33962452    -0.10700
C1802       C  0.96036107  0.08314215  0.35452732    -0.01600
C1803       C  0.95093909  0.08002850  0.36899242    -0.11800
C1804       C  0.93743298  0.06896802  0.36854256    -0.10200
H1805       H  0.94013547  0.05662720  0.32762990     0.07700
H1806       H  0.96329751  0.07665746  0.32828651     0.11400
H1807       H  0.95370493  0.08652092  0.38064818     0.11100
H1808       H  0.93013027  0.06756582  0.37983365     0.07700
C1809       C  0.92505752  0.90907338  0.34071222    -0.11400
C1810       C  0.91923286  0.91797424  0.35475122     0.05700
C1811       C  0.92678353  0.91505834  0.37051153    -0.10200
C1812       C  0.93978642  0.90338475  0.37222658    -0.11800
C1813       C  0.94562260  0.89453282  0.35818077    -0.01600
C1814       C  0.93815452  0.89749738  0.34240303    -0.10700
C1815       C  0.90549161  0.93044985  0.35305243     0.05800
H1816       H  0.92278873  0.92197149  0.38151391     0.07700
H1817       H  0.94533190  0.90137813  0.38452228     0.11200
H1818       H  0.94228596  0.89071306  0.33136824     0.11400
H1819       H  0.91935343  0.91089169  0.32846273     0.07700
C1820       C  0.90463681  0.94138496  0.33915906    -0.11400
C1821       C  0.89247803  0.95410331  0.33842376    -0.10700
C1822       C  0.88117955  0.95617581  0.35167077    -0.01600
C1823       C  0.88157412  0.94480862  0.36515190    -0.11800
C1824       C  0.89351563  0.93199716  0.36577297    -0.10200
H1825       H  0.91375454  0.94054785  0.32919984     0.07700
H1826       H  0.89238243  0.96274720  0.32790145     0.11400
H1827       H  0.87276065  0.94597131  0.37536463     0.11100
H1828       H  0.89354241  0.92345782  0.37637528     0.07700
C1829       C  0.26997978  0.13134469  0.57672924    -0.11400
C1830       C  0.28336562  0.11985595  0.57678658     0.05700
C1831       C  0.28583089  0.10942298  0.59082032    -0.10200
C1832       C  0.27542874  0.11089668  0.60475113    -0.11800
C1833       C  0.26251366  0.12303116  0.60512519    -0.01600
C1834       C  0.25962233  0.13286575  0.59064103    -0.10700
C1835       C  0.29502787  0.11924069  0.56246762     0.05800
H1836       H  0.29605486  0.10041703  0.59121425     0.07700
H1837       H  0.27764849  0.10271218  0.61542745     0.11200
H1838       H  0.24925819  0.14154738  0.58959102     0.11400
H1839       H  0.26743998  0.13913467  0.56582916     0.07700
C1840       C  0.30131426  0.10380328  0.55652997    -0.11400
C1841       C  0.31290029  0.10345385  0.54348614    -0.10700
C1842       C  0.31838724  0.11854337  0.53616882    -0.01600
C1843       C  0.31182936  0.13393216  0.54190069    -0.11800
C1844       C  0.30030459  0.13427721  0.55492590    -0.10200
H1845       H  0.29728213  0.09201465  0.56197673     0.07700
H1846       H  0.31769560  0.09139368  0.53927713     0.11400
H1847       H  0.31583977  0.14577407  0.53655052     0.11100
H1848       H  0.29585526  0.14637517  0.55939705     0.07700
C1849       C  0.06888002  0.05199958  0.63396283    -0.11400
C1850       C  0.06535105  0.06044949  0.64909698     0.05700
C1851       C  0.07336248  0.05485356  0.66390406    -0.10200
C1852       C  0.08434422  0.04108683  0.66363471    -0.11800
C1853       C  0.08781416  0.03267188  0.64852054    -0.01600
C1854       C  0.08005233  0.03836149  0.63366567    -0.10700
C1855       C  0.05324213  0.07485677  0.64951360     0.05800
H1856       H  0.07134233  0.06122489  0.67574099     0.07700
H1857       H  0.09028806  0.03717314  0.67527315     0.11200
H1858       H  0.08248595  0.03217172  0.62180193     0.11400
H1859       H  0.06280021  0.05569763  0.62233820     0.07700
C1860       C  0.05152059  0.08591446  0.63575898    -0.11400
C1861       C  0.03990335  0.09918097  0.63610376    -0.10700
C1862       C  0.02999221  0.10192287  0.65033680    -0.01600
C1863       C  0.03179858  0.09105268  0.66414091    -0.11800
C1864       C  0.04314274  0.07760556  0.66367857    -0.10200
H1865       H  0.05924946  0.08445523  0.62474796     0.07700
H1866       H  0.03879832  0.10740561  0.62529890     0.11400
H1867       H  0.02413492  0.09270057  0.67519036     0.11100
H1868       H  0.04373082  0.06918643  0.67435286     0.07700
C1869       C  0.17987438  0.04603138  0.63226773    -0.11400
C1870       C  0.18380847  0.05531308  0.64675748     0.05700
C1871       C  0.17556080  0.05169779  0.66181797    -0.10200
C1872       C  0.16354802  0.03893479  0.66236048    -0.11800
C1873       C  0.15940008  0.02983622  0.64776371    -0.01600
C1874       C  0.16772445  0.03349740  0.63273286    -0.10700
C1875       C  0.19640580  0.06882667  0.64589323     0.05800
H1876       H  0.17849830  0.05867542  0.67314856     0.07700
H1877       H  0.15731523  0.03638624  0.67410987     0.11200
H1878       H  0.16484097  0.02668051  0.62129155     0.11400
H1879       H  0.18601317  0.04870310  0.62048780     0.07700
C1880       C  0.21198288  0.06556404  0.63856633    -0.11400
C1881       C  0.22339260  0.07855825  0.63623777    -0.10700
C1882       C  0.21936987  0.09516296  0.64096483    -0.01600
C1883       C  0.20400832  0.09832819  0.64887590    -0.11800
C1884       C  0.19262419  0.08522417  0.65138240    -0.10200
H1885       H  0.21523532  0.05295475  0.63446006     0.07700
H1886       H  0.23531337  0.07560314  0.63054070     0.11400
H1887       H  0.20049524  0.11099982  0.65251588     0.11100
H1888       H  0.18060248  0.08800648  0.65696971     0.07700
C1889       C  0.21098228  0.91970287  0.63782836    -0.11400
C1890       C  0.19518434  0.91691238  0.64488536     0.05700
C1891       C  0.19102356  0.90061355  0.65021184    -0.10200
C1892       C  0.20223532  0.88724102  0.64799499    -0.11800
C1893       C  0.21789557  0.88993623  0.64055082    -0.01600
C1894       C  0.22225063  0.90637227  0.63574673    -0.10700
C1895       C  0.18277275  0.93078469  0.64588217     0.05800
H1896       H  0.17883446  0.89809188  0.65548900     0.07700
H1897       H  0.19830032  0.87470911  0.65150276     0.11200
H1898       H  0.23432579  0.90893875  0.63025781     0.11400
H1899       H  0.21457589  0.93220868  0.63383366     0.07700
C1900       C  0.17319301  0.93322680  0.66041352    -0.11400
C1901       C  0.16118990  0.94610175  0.66105390    -0.10700
C1902       C  0.15838770  0.95656759  0.64707266    -0.01600
C1903       C  0.16799246  0.95411279  0.63257078    -0.11800
C1904       C  0.18012401  0.94141944  0.63201851    -0.10200
H1905       H  0.17506501  0.92523521  0.67129440     0.07700
H1906       H  0.15393502  0.94770460  0.67238218     0.11400
H1907       H  0.16615176  0.96203589  0.62163479     0.11100
H1908       H  0.18720505  0.93967979  0.62059738     0.07700
C1909       C  0.28545141  0.86963509  0.59323783    -0.11400
C1910       C  0.28380264  0.85877218  0.57943297     0.05700
C1911       C  0.26999700  0.84794765  0.57858421    -0.10200
C1912       C  0.25823031  0.84769600  0.59148317    -0.11800
C1913       C  0.26008872  0.85823605  0.60564421    -0.01600
C1914       C  0.27369402  0.86945258  0.60608178    -0.10700
C1915       C  0.29649087  0.85878336  0.56598440     0.05800
H1916       H  0.26825331  0.83971811  0.56786109     0.07700
H1917       H  0.24785450  0.83919342  0.59006332     0.11200
H1918       H  0.27541364  0.87789035  0.61664965     0.11400
H1919       H  0.29602264  0.87807558  0.59426077     0.07700
C1920       C  0.30268247  0.87407839  0.55982731    -0.11400
C1921       C  0.31492828  0.87419028  0.54744402    -0.10700
C1922       C  0.32133845  0.85900067  0.54100360    -0.01600
C1923       C  0.31508807  0.84366562  0.54709709    -0.11800
C1924       C  0.30272074  0.84356365  0.55943406    -0.10200
H1925       H  0.29797309  0.88598471  0.56453904     0.07700
H1926       H  0.31949597  0.88621675  0.54304382     0.11400
H1927       H  0.31981694  0.83175632  0.54241580     0.11100
H1928       H  0.29826709  0.83159304  0.56410296     0.07700
C1929       C  0.93595742  0.08654252  0.66652827    -0.11400
C1930       C  0.93197562  0.07778710  0.65168523     0.05700
C1931       C  0.94117524  0.08110988  0.63709321    -0.10200
C1932       C  0.95388418  0.09309750  0.63725765    -0.11800
C1933       C  0.95779327  0.10190728  0.65206159    -0.01600
C1934       C  0.94878105  0.09845207  0.66672652    -0.10700
C1935       C  0.91819061  0.06533943  0.65131029     0.05800
H1936       H  0.93862242  0.07435447  0.62554304     0.07700
H1937       H  0.96069159  0.09542335  0.62578611     0.11200
H1938       H  0.95143164  0.10517158  0.67827904     0.11400
H1939       H  0.92894823  0.08442595  0.67791134     0.07700
C1940       C  0.91568154  0.05433197  0.66487930    -0.11400
C1941       C  0.90281153  0.04247267  0.66433522    -0.10700
C1942       C  0.89235248  0.04126986  0.65013262    -0.01600
C1943       C  0.89477510  0.05232256  0.63663279    -0.11800
C1944       C  0.90748642  0.06430193  0.63725759    -0.10200
H1945       H  0.92384573  0.05468452  0.67579055     0.07700
H1946       H  0.90124630  0.03402797  0.67488109     0.11400
H1947       H  0.88673298  0.05180652  0.62563247     0.11100
H1948       H  0.90886213  0.07283986  0.62676282     0.07700
C1949       C  0.04420842  0.90849003  0.65836369    -0.11400
C1950       C  0.04797111  0.91889750  0.64461588     0.05700
C1951       C  0.03846117  0.91719452  0.62976391    -0.10200
C1952       C  0.02562350  0.90535941  0.62864126    -0.11800
C1953       C  0.02180386  0.89507772  0.64241273    -0.01600
C1954       C  0.03121344  0.89677507  0.65729923    -0.10700
C1955       C  0.06157983  0.93162782  0.64571853     0.05800
H1956       H  0.04072693  0.92521646  0.61903940     0.07700
H1957       H  0.01852471  0.90443634  0.61703758     0.11200
H1958       H  0.02864068  0.88893145  0.66809126     0.11400
H1959       H  0.05141571  0.90924988  0.66990386     0.07700
C1960       C  0.07134625  0.93530579  0.63157893    -0.11400
C1961       C  0.08344388  0.94792377  0.63222825    -0.10700
C1962       C  0.08627472  0.95703477  0.64710008    -0.01600
C1963       C  0.07694764  0.95303696  0.66142366    -0.11800
C1964       C  0.06465615  0.94053968  0.66071631    -0.10200
H1965       H  0.06967456  0.92841189  0.61995628     0.07700
H1966       H  0.09064576  0.95049569  0.62105876     0.11400
H1967       H  0.07889321  0.95981814  0.67307749     0.11100
H1968       H  0.05728225  0.93818493  0.67180886     0.07700
C1969       C  0.92820012  0.91765649  0.62976225    -0.11400
C1970       C  0.92460417  0.92517176  0.64536359     0.05700
C1971       C  0.93267972  0.91878553  0.65980893    -0.10200
C1972       C  0.94429326  0.90555390  0.65861737    -0.11800
C1973       C  0.94824008  0.89845760  0.64294348    -0.01600
C1974       C  0.93992498  0.90456202  0.62855733    -0.10700
C1975       C  0.91280872  0.93982666  0.64641809     0.05800
H1976       H  0.93039086  0.92429362  0.67201949     0.07700
H1977       H  0.95043614  0.90111180  0.66995981     0.11200
H1978       H  0.94247524  0.89921942  0.61631710     0.11400
H1979       H  0.92192706  0.92186502  0.61841014     0.07700
C1980       C  0.91199960  0.95176547  0.63336538    -0.11400
C1981       C  0.90071289  0.96526519  0.63399775    -0.10700
C1982       C  0.89009802  0.96739299  0.64782127    -0.01600
C1983       C  0.89116334  0.95580451  0.66112616    -0.11800
C1984       C  0.90229867  0.94210395  0.66038231    -0.10200
H1985       H  0.92018018  0.95077251  0.62263474     0.07700
H1986       H  0.90033873  0.97410681  0.62364313     0.11400
H1987       H  0.88306655  0.95707282  0.67190482     0.11100
H1988       H  0.90239755  0.93311536  0.67059916     0.07700
C1989       C  0.93865518  0.19529379  0.63957828    -0.11400
C1990       C  0.93221767  0.20056864  0.65510084     0.05700
C1991       C  0.93794028  0.19277145  0.66988550    -0.10200
C1992       C  0.95006457  0.18007421  0.66916799    -0.11800
C1993       C  0.95659280  0.17488861  0.65364056    -0.01600
C1994       C  0.95071761  0.18257437  0.63884968    -0.10700
C1995       C  0.91939060  0.21401806  0.65567489     0.05800
H1996       H  0.93322637  0.19666832  0.68200437     0.07700
H1997       H  0.95436129  0.17436695  0.68078511     0.11200
H1998       H  0.95549771  0.17883559  0.62670743     0.11400
H1999       H  0.93422194  0.20089908  0.62795895     0.07700
C2000       C  0.92083794  0.22818359  0.64530798    -0.11400
C2001       C  0.90787378  0.23992822  0.64417456    -0.10700
C2002       C  0.89298459  0.23766008  0.65327650    -0.01600
C2003       C  0.89231907  0.22428288  0.66487672    -0.11800
C2004       C  0.90528769  0.21247155  0.66593069    -0.10200
H2005       H  0.93192862  0.23001474  0.63779457     0.07700
H2006       H  0.90978477  0.25047200  0.63593019     0.11400
H2007       H  0.88127210  0.22243314  0.67244962     0.11100
H2008       H  0.90391709  0.20172776  0.67417644     0.07700
C2009       C  0.84487761  0.30241033  0.60285453    -0.11400
C2010       C  0.85516673  0.30015002  0.58879546     0.05700
C2011       C  0.86724280  0.28729987  0.58905530    -0.10200
C2012       C  0.86939894  0.27723742  0.60318423    -0.11800
C2013       C  0.85975108  0.27990229  0.61769966    -0.01600
C2014       C  0.84719274  0.29241240  0.61721383    -0.10700
C2015       C  0.85386615  0.31125678  0.57391219     0.05800
H2016       H  0.87499510  0.28491824  0.57819516     0.07700
H2017       H  0.87854906  0.26719629  0.60243848     0.11200
H2018       H  0.83934725  0.29479031  0.62794709     0.11400
H2019       H  0.83540350  0.31221889  0.60292093     0.07700
C2020       C  0.83828799  0.31542980  0.56669000    -0.11400
C2021       C  0.83748291  0.32502067  0.55193177    -0.10700
C2022       C  0.85225023  0.33060943  0.54424175    -0.01600
C2023       C  0.86774891  0.32674536  0.55177620    -0.11800
C2024       C  0.86853770  0.31721726  0.56642032    -0.10200
H2025       H  0.82680008  0.31092972  0.57221136     0.07700
H2026       H  0.82534712  0.32794198  0.54649023     0.11400
H2027       H  0.87935439  0.33103796  0.54633547     0.11100
H2028       H  0.88069867  0.31445436  0.57189920     0.07700
C2029       C  0.18189993  0.20435183  0.65926599    -0.11400
C2030       C  0.18066259  0.19305309  0.64570672     0.05700
C2031       C  0.16728303  0.19488752  0.63431811    -0.10200
C2032       C  0.15556292  0.20775623  0.63633316    -0.11800
C2033       C  0.15663025  0.21905947  0.64994280    -0.01600
C2034       C  0.17001219  0.21718099  0.66141005    -0.10700
C2035       C  0.19328683  0.17946644  0.64328557     0.05800
H2036       H  0.16572644  0.18626582  0.62388677     0.07700
H2037       H  0.14549113  0.20887933  0.62720194     0.11200
H2038       H  0.17165982  0.22560373  0.67191090     0.11400
H2039       H  0.19223799  0.20346677  0.66809733     0.07700
C2040       C  0.19825293  0.17484466  0.62703844    -0.11400
C2041       C  0.20980910  0.16188081  0.62463276    -0.10700
C2042       C  0.21703734  0.15336626  0.63841767    -0.01600
C2043       C  0.21199295  0.15790224  0.65467549    -0.11800
C2044       C  0.20026606  0.17081740  0.65708457    -0.10200
H2045       H  0.19329745  0.18132367  0.61610612     0.07700
H2046       H  0.21290023  0.15848536  0.61186520     0.11400
H2047       H  0.21712362  0.15164415  0.66560544     0.11100
H2048       H  0.19649853  0.17386448  0.66976229     0.07700
C2049       C  0.06798378  0.22854352  0.65999937    -0.11400
C2050       C  0.06424113  0.21659451  0.64746959     0.05700
C2051       C  0.07586451  0.21380859  0.63458376    -0.10200
C2052       C  0.09139041  0.22167447  0.63498417    -0.11800
C2053       C  0.09561082  0.23254499  0.64820363    -0.01600
C2054       C  0.08357825  0.23650279  0.66031077    -0.10700
C2055       C  0.04956482  0.20531355  0.64886087     0.05800
H2056       H  0.07351563  0.20457812  0.62483932     0.07700
H2057       H  0.10052252  0.21852111  0.62547580     0.11200
H2058       H  0.08657397  0.24479421  0.67064169     0.11400
H2059       H  0.05918066  0.23110802  0.66996320     0.07700
C2060       C  0.04534420  0.19824471  0.66445573    -0.11400
C2061       C  0.03394265  0.18496452  0.66532220    -0.10700
C2062       C  0.02661628  0.17847327  0.65060578    -0.01600
C2063       C  0.03001226  0.18628623  0.63517669    -0.11800
C2064       C  0.04128523  0.19960588  0.63432951    -0.10200
H2065       H  0.05157673  0.20227301  0.67588209     0.07700
H2066       H  0.03132966  0.17940572  0.67743218     0.11400
H2067       H  0.02424250  0.18187200  0.62364692     0.11100
H2068       H  0.04399826  0.20503721  0.62218420     0.07700
C2069       C  0.13960334  0.31288303  0.57473963    -0.11400
C2070       C  0.12647288  0.30176504  0.57838011     0.05700
C2071       C  0.11248240  0.30132447  0.56751963    -0.10200
C2072       C  0.11163546  0.31185863  0.55344584    -0.11800
C2073       C  0.12489503  0.32277232  0.54983248    -0.01600
C2074       C  0.13890446  0.32309649  0.56055237    -0.10700
C2075       C  0.12762605  0.29056766  0.59331051     0.05800
H2076       H  0.10227596  0.29271600  0.56976236     0.07700
H2077       H  0.10071577  0.31135605  0.54531664     0.11200
H2078       H  0.14920298  0.33158533  0.55820730     0.11400
H2079       H  0.15037994  0.31393074  0.58298824     0.07700
C2080       C  0.14322143  0.28404142  0.59843855    -0.11400
C2081       C  0.14452125  0.27358145  0.61240159    -0.10700
C2082       C  0.13020284  0.26888862  0.62139093    -0.01600
C2083       C  0.11458916  0.27550405  0.61642833    -0.11800
C2084       C  0.11332409  0.28631436  0.60258207    -0.10200
H2085       H  0.15449647  0.28677697  0.59152239     0.07700
H2086       H  0.15684397  0.26913618  0.61605662     0.11400
H2087       H  0.10327811  0.27205904  0.62294414     0.11100
H2088       H  0.10114426  0.29133741  0.59916908     0.07700
C2089       C  0.27761185  0.42714751  0.87409393    -0.11400
C2090       C  0.27630994  0.43874825  0.86081242     0.05700
C2091       C  0.26457920  0.43558886  0.84795390    -0.10200
C2092       C  0.25448337  0.42119457  0.84831433    -0.11800
C2093       C  0.25579826  0.40948660  0.86161766    -0.01600
C2094       C  0.26745335  0.41285426  0.87453828    -0.10700
C2095       C  0.28743711  0.45381840  0.86026788     0.05800
H2096       H  0.26303210  0.44437873  0.83765747     0.07700
H2097       H  0.24560246  0.41967571  0.83819116     0.11200
H2098       H  0.26879014  0.40425272  0.88502514     0.11400
H2099       H  0.28669161  0.42896030  0.88408600     0.07700
C2100       C  0.29195455  0.46235893  0.87511714    -0.11400
C2101       C  0.30354190  0.47554309  0.87481342    -0.10700
C2102       C  0.31084441  0.48060596  0.85963490    -0.01600
C2103       C  0.30576159  0.47260325  0.84468779    -0.11800
C2104       C  0.29423990  0.45936117  0.84500109    -0.10200
H2105       H  0.28666071  0.45872735  0.88704620     0.07700
H2106       H  0.30699548  0.48157624  0.88653163     0.11400
H2107       H  0.31109327  0.47620668  0.83276437     0.11100
H2108       H  0.29116160  0.45305241  0.83332978     0.07700
C2109       C  0.19970334  0.37758261  0.07728535    -0.11400
C2110       C  0.18709901  0.36536221  0.07608003     0.05700
C2111       C  0.18591459  0.35315071  0.08873269    -0.10200
C2112       C  0.19682031  0.35344117  0.10249679    -0.11800
C2113       C  0.20912199  0.36602900  0.10412318    -0.01600
C2114       C  0.21061728  0.37791833  0.09109026    -0.10700
C2115       C  0.17504933  0.36554068  0.06181590     0.05800
H2116       H  0.17628298  0.34360530  0.08820905     0.07700
H2117       H  0.19542231  0.34397439  0.11217678     0.11200
H2118       H  0.22004490  0.38757323  0.09128115     0.11400
H2119       H  0.20114361  0.38691120  0.06748820     0.07700
C2120       C  0.16814447  0.38082882  0.05607023    -0.11400
C2121       C  0.15666806  0.38104174  0.04273671    -0.10700
C2122       C  0.15187135  0.36596398  0.03484227    -0.01600
C2123       C  0.15875399  0.35066271  0.04062586    -0.11800
C2124       C  0.17020583  0.35045397  0.05397396    -0.10200
H2125       H  0.17142613  0.39262091  0.06207231     0.07700
H2126       H  0.15145800  0.39301079  0.03870664     0.11400
H2127       H  0.15527130  0.33880984  0.03486296     0.11100
H2128       H  0.17540832  0.33849560  0.05805109     0.07700
C2129       C  0.17030946  0.38598507  0.94339678    -0.11400
C2130       C  0.17569413  0.37186153  0.93415113     0.05700
C2131       C  0.16901542  0.35598557  0.93832189    -0.10200
C2132       C  0.15727019  0.35435976  0.95124846    -0.11800
C2133       C  0.15175022  0.36858400  0.96020335    -0.01600
C2134       C  0.15845412  0.38438828  0.95610069    -0.10700
C2135       C  0.18811333  0.37382123  0.92025337     0.05800
H2136       H  0.17258105  0.34480590  0.93140898     0.07700
H2137       H  0.15232732  0.34200337  0.95404982     0.11200
H2138       H  0.15461248  0.39562210  0.96280295     0.11400
H2139       H  0.17538182  0.39836237  0.94101417     0.07700
C2140       C  0.18872525  0.38883088  0.91079322    -0.11400
C2141       C  0.20053968  0.39090325  0.89809033    -0.10700
C2142       C  0.21180053  0.37789594  0.89419777    -0.01600
C2143       C  0.21112791  0.36280189  0.90333245    -0.11800
C2144       C  0.19955782  0.36084292  0.91632829    -0.10200
H2145       H  0.17991172  0.39897640  0.91298155     0.07700
H2146       H  0.20062167  0.40256053  0.89102312     0.11400
H2147       H  0.21979008  0.35262570  0.90063025     0.11100
H2148       H  0.19979570  0.34922926  0.92343550     0.07700
C2149       C  0.87281549  0.29638079  0.29695452    -0.11400
C2150       C  0.85945881  0.28512912  0.29882039     0.05700
C2151       C  0.84531170  0.28700343  0.28839904    -0.10200
C2152       C  0.84417948  0.30028371  0.27691501    -0.11800
C2153       C  0.85725058  0.31207571  0.27552253    -0.01600
C2154       C  0.87169116  0.30967666  0.28551885    -0.10700
C2155       C  0.85957326  0.27271671  0.31277990     0.05800
H2156       H  0.83487256  0.27842085  0.28944202     0.07700
H2157       H  0.83271004  0.30139746  0.26980234     0.11200
H2158       H  0.88193982  0.31853608  0.28489054     0.11400
H2159       H  0.88380334  0.29545921  0.30495385     0.07700
C2160       C  0.87434870  0.26410216  0.31745514    -0.11400
C2161       C  0.87487436  0.25429681  0.33206967    -0.10700
C2162       C  0.86068661  0.25310211  0.34220940    -0.01600
C2163       C  0.84574868  0.26098561  0.33719445    -0.11800
C2164       C  0.84515733  0.27064079  0.32257715    -0.10200
H2165       H  0.88560483  0.26534994  0.31007877     0.07700
H2166       H  0.88653704  0.24837930  0.33590275     0.11400
H2167       H  0.83472463  0.26022467  0.34499888     0.11100
H2168       H  0.83365787  0.27726602  0.31949448     0.07700
C2169       C  0.84212523  0.40288715  0.27881421    -0.11400
C2170       C  0.85246846  0.40596132  0.29282733     0.05700
C2171       C  0.86419787  0.39366596  0.29776533    -0.10200
C2172       C  0.86534658  0.37841810  0.28911389    -0.11800
C2173       C  0.85498692  0.37526330  0.27516550    -0.01600
C2174       C  0.84353253  0.38770449  0.26989992    -0.10700
C2175       C  0.85111450  0.42180232  0.30255374     0.05800
H2176       H  0.87224338  0.39573306  0.30857698     0.07700
H2177       H  0.87432690  0.36903768  0.29334475     0.11200
H2178       H  0.83533803  0.38545898  0.25923924     0.11400
H2179       H  0.83303515  0.41223990  0.27476818     0.07700
C2180       C  0.86554930  0.43116352  0.30614167    -0.11400
C2181       C  0.86475605  0.44525053  0.31660817    -0.10700
C2182       C  0.84950796  0.45024416  0.32383235    -0.01600
C2183       C  0.83493760  0.44112061  0.31988045    -0.11800
C2184       C  0.83573162  0.42703957  0.30926984    -0.10200
H2185       H  0.87752052  0.42740635  0.30100479     0.07700
H2186       H  0.87618908  0.45205427  0.31927815     0.11400
H2187       H  0.82301645  0.44461527  0.32528982     0.11100
H2188       H  0.82446541  0.41989238  0.30677953     0.07700
C2189       C  0.06691277  0.34984077  0.05793117    -0.11400
C2190       C  0.05901807  0.36480944  0.06322562     0.05700
C2191       C  0.06214463  0.37975641  0.05433067    -0.10200
C2192       C  0.07302315  0.37976471  0.04064624    -0.11800
C2193       C  0.08098445  0.36481133  0.03544703    -0.01600
C2194       C  0.07770685  0.34983060  0.04417764    -0.10700
C2195       C  0.04757535  0.36478571  0.07793097     0.05800
H2196       H  0.05607406  0.39145293  0.05784691     0.07700
H2197       H  0.07522475  0.39152741  0.03415804     0.11200
H2198       H  0.08373468  0.33813150  0.04058754     0.11400
H2199       H  0.06501739  0.33814476  0.06462433     0.07700
C2200       C  0.03696115  0.35102087  0.08082138    -0.11400
C2201       C  0.02632134  0.35084700  0.09466287    -0.10700
C2202       C  0.02583964  0.36452928  0.10584590    -0.01600
C2203       C  0.03631675  0.37837416  0.10296104    -0.11800
C2204       C  0.04715383  0.37845480  0.08921753    -0.10200
H2205       H  0.03667603  0.34044337  0.07223401     0.07700
H2206       H  0.01820604  0.34010941  0.09642479     0.11400
H2207       H  0.03624325  0.38907063  0.11141689     0.11100
H2208       H  0.05533076  0.38915090  0.08754477     0.07700
C2209       C  0.04611401  0.34501833  0.20028962    -0.11400
C2210       C  0.05505856  0.35938151  0.20538863     0.05700
C2211       C  0.05069334  0.37504046  0.19827173    -0.10200
C2212       C  0.03780658  0.37626840  0.18623345    -0.11800
C2213       C  0.02913315  0.36182290  0.18086440    -0.01600
C2214       C  0.03339364  0.34620788  0.18814620    -0.10700
C2215       C  0.06915951  0.35782438  0.21772011     0.05800
H2216       H  0.05722402  0.38636289  0.20206560     0.07700
H2217       H  0.03480001  0.38849504  0.18095573     0.11200
H2218       H  0.02693296  0.33482568  0.18440461     0.11400
H2219       H  0.04923845  0.33274627  0.20540003     0.07700
C2220       C  0.06771531  0.34743083  0.23189630    -0.11400
C2221       C  0.08130722  0.34502200  0.24284703    -0.10700
C2222       C  0.09685146  0.35278351  0.23984875    -0.01600
C2223       C  0.09806747  0.36368722  0.22601870    -0.11800
C2224       C  0.08441616  0.36617614  0.21508438    -0.10200
H2225       H  0.05603600  0.34110128  0.23451135     0.07700
H2226       H  0.07958380  0.33699814  0.25366640     0.11400
H2227       H  0.10969438  0.36994180  0.22325610     0.11100
H2228       H  0.08596775  0.37420296  0.20422969     0.07700
C2229       C  0.94033602  0.34673024  0.20164475    -0.11400
C2230       C  0.92797907  0.35936122  0.20260298     0.05700
C2231       C  0.93014826  0.37433038  0.19343697    -0.10200
C2232       C  0.94393494  0.37617240  0.18280900    -0.11800
C2233       C  0.95566959  0.36302701  0.18111679    -0.01600
C2234       C  0.95393643  0.34848762  0.19094611    -0.10700
C2235       C  0.91255619  0.35630724  0.21243760     0.05800
H2236       H  0.92083587  0.38427847  0.19391286     0.07700
H2237       H  0.94498630  0.38751460  0.17534169     0.11200
H2238       H  0.96294622  0.33827848  0.19010506     0.11400
H2239       H  0.93929559  0.33526617  0.20892596     0.07700
C2240       C  0.90512530  0.34029025  0.21207606    -0.11400
C2241       C  0.89128034  0.33678560  0.22198278    -0.10700
C2242       C  0.88440912  0.34924348  0.23239173    -0.01600
C2243       C  0.89124587  0.36551049  0.23223389    -0.11800
C2244       C  0.90526922  0.36901642  0.22236099    -0.10200
H2245       H  0.91009962  0.33037654  0.20417369     0.07700
H2246       H  0.88600604  0.32424094  0.22161745     0.11400
H2247       H  0.88617647  0.37529228  0.24023957     0.11100
H2248       H  0.91071940  0.38147173  0.22290023     0.07700
C2249       C  0.02715406  0.37929192  0.92468065    -0.11400
C2250       C  0.03625023  0.36435041  0.92756255     0.05700
C2251       C  0.03134345  0.34958539  0.91910379    -0.10200
C2252       C  0.01784728  0.34986325  0.90779258    -0.11800
C2253       C  0.00905115  0.36493047  0.90463550    -0.01600
C2254       C  0.01376792  0.37959435  0.91331356    -0.10700
C2255       C  0.05085963  0.36430646  0.93924602     0.05800
H2256       H  0.03816283  0.33789618  0.92093855     0.07700
H2257       H  0.01450910  0.33835806  0.90128517     0.11200
H2258       H  0.00710266  0.39135247  0.91132735     0.11400
H2259       H  0.03034014  0.39078440  0.93128063     0.07700
C2260       C  0.06181896  0.37813077  0.93981964    -0.11400
C2261       C  0.07521648  0.37843338  0.95120140    -0.10700
C2262       C  0.07810065  0.36480706  0.96207010    -0.01600
C2263       C  0.06741215  0.35081486  0.96127943    -0.11800
C2264       C  0.05387009  0.35060453  0.95005572    -0.10200
H2265       H  0.06007213  0.38872473  0.93141511     0.07700
H2266       H  0.08338360  0.38928611  0.95143736     0.11400
H2267       H  0.06928632  0.34019313  0.96963370     0.11100
H2268       H  0.04556106  0.33986741  0.95009332     0.07700
C2269       C  0.90274467  0.37860511  0.06955270    -0.11400
C2270       C  0.91243204  0.36409818  0.07296570     0.05700
C2271       C  0.90825662  0.34904062  0.06458086    -0.10200
C2272       C  0.89473529  0.34843989  0.05333720    -0.11800
C2273       C  0.88511118  0.36292650  0.04992390    -0.01600
C2274       C  0.88931436  0.37804384  0.05811327    -0.10700
C2275       C  0.92663955  0.36450751  0.08535180     0.05800
H2276       H  0.91557076  0.33767973  0.06650792     0.07700
H2277       H  0.89197025  0.33662020  0.04712511     0.11200
H2278       H  0.88212632  0.38942565  0.05579849     0.11400
H2279       H  0.90534093  0.39037046  0.07591518     0.07700
C2280       C  0.93660160  0.37899469  0.08743000    -0.11400
C2281       C  0.94977656  0.37926213  0.09920617    -0.10700
C2282       C  0.95346054  0.36497488  0.10901246    -0.01600
C2283       C  0.94362284  0.35049505  0.10684808    -0.11800
C2284       C  0.93034432  0.35030475  0.09531643    -0.10200
H2285       H  0.93437197  0.39009067  0.07982490     0.07700
H2286       H  0.95720273  0.39057577  0.10049185     0.11400
H2287       H  0.94600750  0.33931793  0.11430759     0.11100
H2288       H  0.92280792  0.33903975  0.09445200     0.07700
C2289       C  0.90396101  0.35052681  0.96164027    -0.11400
C2290       C  0.90431731  0.36469042  0.95105252     0.05700
C2291       C  0.89324649  0.37814750  0.95404875    -0.10200
C2292       C  0.88193632  0.37737968  0.96724099    -0.11800
C2293       C  0.88131534  0.36304335  0.97751595    -0.01600
C2294       C  0.89245198  0.34964891  0.97467113    -0.10700
C2295       C  0.91583777  0.36521718  0.93663553     0.05800
H2296       H  0.89302109  0.38910599  0.94595625     0.07700
H2297       H  0.87339192  0.38783931  0.96914238     0.11200
H2298       H  0.89233135  0.33854962  0.98257879     0.11400
H2299       H  0.91258276  0.34011625  0.95986571     0.07700
C2300       C  0.92348436  0.38038824  0.93192464    -0.11400
C2301       C  0.93406125  0.38087454  0.91810136    -0.10700
C2302       C  0.93731519  0.36616126  0.90885975    -0.01600
C2303       C  0.92970904  0.35100752  0.91356717    -0.11800
C2304       C  0.91901118  0.35055723  0.92726769    -0.10200
H2305       H  0.92146880  0.39184254  0.93903917     0.07700
H2306       H  0.93986894  0.39271372  0.91481059     0.11400
H2307       H  0.93194726  0.33949013  0.90661420     0.11100
H2308       H  0.91303667  0.33875718  0.93036410     0.07700
C2309       C  0.25756382  0.57668635  0.13644867    -0.11400
C2310       C  0.27119518  0.57712885  0.14764777     0.05700
C2311       C  0.27405259  0.59183264  0.15700918    -0.10200
C2312       C  0.26389149  0.60606728  0.15471583    -0.11800
C2313       C  0.25039789  0.60584938  0.14322282    -0.01600
C2314       C  0.24717493  0.59078038  0.13440662    -0.10700
C2315       C  0.28289630  0.56261539  0.14894398     0.05800
H2316       H  0.28459678  0.59255389  0.16560985     0.07700
H2317       H  0.26715292  0.61736077  0.16154276     0.11200
H2318       H  0.23669182  0.58978244  0.12580447     0.11400
H2319       H  0.25495423  0.56540283  0.12924676     0.07700
C2320       C  0.28833409  0.55664115  0.16467782    -0.11400
C2321       C  0.29997598  0.54343795  0.16577624    -0.10700
C2322       C  0.30650561  0.53605176  0.15114911    -0.01600
C2323       C  0.30086961  0.54192107  0.13542241    -0.11800
C2324       C  0.28916817  0.55502377  0.13434014    -0.10200
H2325       H  0.28358953  0.56222074  0.17612002     0.07700
H2326       H  0.30403984  0.53919002  0.17807544     0.11400
H2327       H  0.30570648  0.53658502  0.12390673     0.11100
H2328       H  0.28533851  0.55953469  0.12205600     0.07700
C2329       C  0.03154068  0.64195507  0.08000590    -0.11400
C2330       C  0.04250066  0.65569201  0.07871093     0.05700
C2331       C  0.04119910  0.66893264  0.09038848    -0.10200
C2332       C  0.02927250  0.66840626  0.10310784    -0.11800
C2333       C  0.01856217  0.65452888  0.10454322    -0.01600
C2334       C  0.01976621  0.64133359  0.09285327    -0.10700
C2335       C  0.05540038  0.65609990  0.06539707     0.05800
H2336       H  0.04961927  0.67956609  0.08990616     0.07700
H2337       H  0.02866472  0.67869500  0.11203070     0.11200
H2338       H  0.01150890  0.63057640  0.09356454     0.11400
H2339       H  0.03199506  0.63171402  0.07102682     0.07700
C2340       C  0.06395780  0.64130805  0.06074784    -0.11400
C2341       C  0.07626486  0.64172853  0.04839498    -0.10700
C2342       C  0.08038037  0.65697320  0.04051609    -0.01600
C2343       C  0.07182346  0.67175515  0.04512505    -0.11800
C2344       C  0.05942173  0.67131180  0.05737967    -0.10200
H2345       H  0.06135522  0.62943424  0.06686347     0.07700
H2346       H  0.08269933  0.63014009  0.04516465     0.11400
H2347       H  0.07461832  0.68366805  0.03916823     0.11100
H2348       H  0.05287136  0.68287053  0.06046434     0.07700
C2349       C  0.17348163  0.63722247  0.05601558    -0.11400
C2350       C  0.17776094  0.65081067  0.06646928     0.05700
C2351       C  0.17009083  0.66657528  0.06360553    -0.10200
C2352       C  0.15813944  0.66857174  0.05078101    -0.11800
C2353       C  0.15358904  0.65482175  0.04063128    -0.01600
C2354       C  0.16153178  0.63919037  0.04329261    -0.10700
C2355       C  0.18985437  0.64834416  0.08054715     0.05800
H2356       H  0.17300593  0.67725610  0.07155502     0.07700
H2357       H  0.15221690  0.68076101  0.04905103     0.11200
H2358       H  0.15846199  0.62838613  0.03556628     0.11400
H2359       H  0.17938922  0.62501745  0.05767558     0.07700
C2360       C  0.18936847  0.63365873  0.09037207    -0.11400
C2361       C  0.20038917  0.63149323  0.10391066    -0.10700
C2362       C  0.21239578  0.64381689  0.10792121    -0.01600
C2363       C  0.21283912  0.65853178  0.09798651    -0.11800
C2364       C  0.20174092  0.66071772  0.08448552    -0.10200
H2365       H  0.18013310  0.62401296  0.08788882     0.07700
H2366       H  0.19933158  0.62024130  0.11151407     0.11400
H2367       H  0.22124015  0.66876387  0.10072862     0.11100
H2368       H  0.20244712  0.67216142  0.07712922     0.07700
C2369       C  0.17281384  0.67489254  0.95039251    -0.11400
C2370       C  0.17804973  0.65973478  0.94290692     0.05700
C2371       C  0.17042927  0.64460087  0.94775523    -0.10200
C2372       C  0.15802581  0.64454807  0.95996780    -0.11800
C2373       C  0.15290133  0.65963847  0.96762963    -0.01600
C2374       C  0.16036245  0.67484481  0.96266636    -0.10700
C2375       C  0.19132135  0.65949284  0.92999124     0.05800
H2376       H  0.17395293  0.63276398  0.94196367     0.07700
H2377       H  0.15245131  0.63263720  0.96339881     0.11200
H2378       H  0.15667035  0.68668574  0.96834017     0.11400
H2379       H  0.17852936  0.68673062  0.94695168     0.07700
C2380       C  0.19164310  0.67159792  0.91716371    -0.11400
C2381       C  0.20328094  0.67027474  0.90419739    -0.10700
C2382       C  0.21470571  0.65668308  0.90356889    -0.01600
C2383       C  0.21495341  0.64520730  0.91707845    -0.11800
C2384       C  0.20340294  0.64660522  0.93004866    -0.10200
H2385       H  0.18250289  0.68171856  0.91679741     0.07700
H2386       H  0.20292004  0.67952746  0.89420258     0.11400
H2387       H  0.22378116  0.63495325  0.91791498     0.11100
H2388       H  0.20379998  0.63741360  0.94009614     0.07700
C2389       C  0.26541416  0.59357729  0.87433761    -0.11400
C2390       C  0.27919277  0.59522863  0.86366109     0.05700
C2391       C  0.28119588  0.61034596  0.85476848    -0.10200
C2392       C  0.27005181  0.62379293  0.85710938    -0.11800
C2393       C  0.25670318  0.62247140  0.86848094    -0.01600
C2394       C  0.25428864  0.60694047  0.87664311    -0.10700
C2395       C  0.29162922  0.58135551  0.86234764     0.05800
H2396       H  0.29169498  0.61199114  0.84641612     0.07700
H2397       H  0.27231501  0.63527111  0.85027448     0.11200
H2398       H  0.24376086  0.60490505  0.88482458     0.11400
H2399       H  0.26320289  0.58188360  0.88094578     0.07700
C2400       C  0.29645938  0.57237858  0.87680339    -0.11400
C2401       C  0.30800689  0.55921759  0.87581239    -0.10700
C2402       C  0.31504447  0.55469156  0.86033751    -0.01600
C2403       C  0.31032665  0.56368494  0.84584150    -0.11800
C2404       C  0.29875514  0.57695133  0.84684865    -0.10200
H2405       H  0.29144278  0.57566001  0.88897743     0.07700
H2406       H  0.31139162  0.55255824  0.88722053     0.11400
H2407       H  0.31559903  0.56050370  0.83375172     0.11100
H2408       H  0.29519227  0.58358217  0.83548200     0.07700
C2409       C  0.93230836  0.66867152  0.08381814    -0.11400
C2410       C  0.92258693  0.65424640  0.08069056     0.05700
C2411       C  0.92468996  0.64013348  0.09115617    -0.10200
C2412       C  0.93655843  0.64023061  0.10409690    -0.11800
C2413       C  0.94650163  0.65449962  0.10701903    -0.01600
C2414       C  0.94410858  0.66882313  0.09691664    -0.10700
C2415       C  0.91050768  0.65371011  0.06641468     0.05800
H2416       H  0.91715622  0.62896506  0.08933510     0.07700
H2417       H  0.93800567  0.62906213  0.11179640     0.11200
H2418       H  0.95169893  0.67994207  0.09881444     0.11400
H2419       H  0.93110816  0.67968238  0.07586908     0.07700
C2420       C  0.90062347  0.66784848  0.06230393    -0.11400
C2421       C  0.88916171  0.66719310  0.04895247    -0.10700
C2422       C  0.88728756  0.65235813  0.03950202    -0.01600
C2423       C  0.89721001  0.63824967  0.04356113    -0.11800
C2424       C  0.90873229  0.63894097  0.05680833    -0.10200
H2425       H  0.90154103  0.67933385  0.06959171     0.07700
H2426       H  0.88158521  0.67821882  0.04619626     0.11400
H2427       H  0.89613763  0.62666635  0.03643909     0.11100
H2428       H  0.91637034  0.62792772  0.05943431     0.07700
C2429       C  0.05986331  0.64597145  0.95006134    -0.11400
C2430       C  0.05748845  0.66045212  0.94015251     0.05700
C2431       C  0.06652055  0.67510340  0.94420607    -0.10200
C2432       C  0.07787179  0.67514332  0.95768009    -0.11800
C2433       C  0.08053435  0.66048769  0.96723051    -0.01600
C2434       C  0.07131623  0.64595788  0.96335612    -0.10700
C2435       C  0.04560393  0.66013227  0.92570676     0.05800
H2436       H  0.06510893  0.68642847  0.93674658     0.07700
H2437       H  0.08487729  0.68649707  0.96034058     0.11200
H2438       H  0.07296197  0.63451822  0.97060890     0.11400
H2439       H  0.05280261  0.63461231  0.94760467     0.07700
C2440       C  0.04389590  0.64547854  0.91589614    -0.11400
C2441       C  0.03198901  0.64470449  0.90301310    -0.10700
C2442       C  0.02170709  0.65865534  0.89945939    -0.01600
C2443       C  0.02378563  0.67352607  0.90880775    -0.11800
C2444       C  0.03554817  0.67422940  0.92187069    -0.10200
H2445       H  0.05174299  0.63454535  0.91819755     0.07700
H2446       H  0.03082760  0.63316723  0.89583070     0.11400
H2447       H  0.01599103  0.68446848  0.90633872     0.11100
H2448       H  0.03641257  0.68565184  0.92925905     0.07700
C2449       C  0.92753934  0.66959581  0.91629191    -0.11400
C2450       C  0.92654491  0.65549908  0.92699927     0.05700
C2451       C  0.93782756  0.64206621  0.92459074    -0.10200
C2452       C  0.94929926  0.64238929  0.91151003    -0.11800
C2453       C  0.95011193  0.65632218  0.90071133    -0.01600
C2454       C  0.93932363  0.67006361  0.90337389    -0.10700
C2455       C  0.91364032  0.65451761  0.94038397     0.05800
H2456       H  0.93789809  0.63124769  0.93285576     0.07700
H2457       H  0.95768423  0.63173923  0.90996048     0.11200
H2458       H  0.93971925  0.68097781  0.89522962     0.11400
H2459       H  0.91896819  0.68011104  0.91758547     0.07700
C2460       C  0.90803465  0.66909054  0.94874975    -0.11400
C2461       C  0.89580471  0.66803023  0.96116613    -0.10700
C2462       C  0.88906266  0.65235608  0.96567579    -0.01600
C2463       C  0.89472182  0.63779392  0.95745415    -0.11800
C2464       C  0.90672718  0.63887280  0.94487129    -0.10200
H2465       H  0.91321455  0.68132185  0.94588776     0.07700
H2466       H  0.89172201  0.67949283  0.96732245     0.11400
H2467       H  0.88966387  0.62555213  0.96053544     0.11100
H2468       H  0.91033548  0.62740231  0.93846766     0.07700
C2469       C  0.84596326  0.68721403  0.26493955    -0.11400
C2470       C  0.83566365  0.68931224  0.27902508     0.05700
C2471       C  0.82591270  0.67565662  0.28438980    -0.10200
C2472       C  0.82682251  0.66014216  0.27620721    -0.11800
C2473       C  0.83757661  0.65787419  0.26252830    -0.01600
C2474       C  0.84694027  0.67163730  0.25680024    -0.10700
C2475       C  0.83617199  0.70504560  0.28910866     0.05800
H2476       H  0.81804712  0.67672139  0.29535346     0.07700
H2477       H  0.81924753  0.64985802  0.28075085     0.11200
H2478       H  0.85550266  0.67025884  0.24641550     0.11400
H2479       H  0.85353169  0.69751895  0.26042241     0.07700
C2480       C  0.85151571  0.71300286  0.29240592    -0.11400
C2481       C  0.85260658  0.72591471  0.30428144    -0.10700
C2482       C  0.83830221  0.73140370  0.31301166    -0.01600
C2483       C  0.82283725  0.72382719  0.30911850    -0.11800
C2484       C  0.82174319  0.71102201  0.29715959    -0.10200
H2485       H  0.86294547  0.70845789  0.28670919     0.07700
H2486       H  0.86491862  0.73061734  0.30732841     0.11400
H2487       H  0.81164770  0.72720271  0.31595354     0.11100
H2488       H  0.80969134  0.70527015  0.29478127     0.07700
C2489       C  0.90587188  0.63188992  0.22489670    -0.11400
C2490       C  0.90546369  0.64284373  0.21109409     0.05700
C2491       C  0.89010685  0.65005385  0.20615803    -0.10200
C2492       C  0.87528251  0.64558045  0.21426366    -0.11800
C2493       C  0.87556083  0.63397881  0.22762791    -0.01600
C2494       C  0.89116285  0.62763856  0.23315307    -0.10700
C2495       C  0.92071411  0.64535143  0.20094003     0.05800
H2496       H  0.88944198  0.65846443  0.19546583     0.07700
H2497       H  0.86362008  0.65071855  0.20951804     0.11200
H2498       H  0.89214309  0.61926988  0.24382608     0.11400
H2499       H  0.91759853  0.62640306  0.22916367     0.07700
C2500       C  0.92517534  0.66136027  0.19496258    -0.11400
C2501       C  0.93892141  0.66319454  0.18429432    -0.10700
C2502       C  0.94826951  0.64900763  0.17928204    -0.01600
C2503       C  0.94401696  0.63311396  0.18566833    -0.11800
C2504       C  0.93044569  0.63132025  0.19639019    -0.10200
H2505       H  0.91791806  0.67238644  0.19838802     0.07700
H2506       H  0.94189815  0.67560662  0.17956617     0.11400
H2507       H  0.95095377  0.62193485  0.18207580     0.11100
H2508       H  0.92717744  0.61880548  0.20063729     0.07700
C2509       C  0.85506964  0.57966357  0.28726834    -0.11400
C2510       C  0.84421508  0.56598325  0.28505237     0.05700
C2511       C  0.83231186  0.56667216  0.27194992    -0.10200
C2512       C  0.83126638  0.58074944  0.26134707    -0.11800
C2513       C  0.84212078  0.59453257  0.26364190    -0.01600
C2514       C  0.85403987  0.59366309  0.27674218    -0.10700
C2515       C  0.84513498  0.55133886  0.29671460     0.05800
H2516       H  0.82386854  0.55624654  0.26979996     0.07700
H2517       H  0.82192576  0.58058759  0.25150831     0.11200
H2518       H  0.86257619  0.60401906  0.27891121     0.11400
H2519       H  0.86418704  0.57973733  0.29739891     0.07700
C2520       C  0.86069476  0.54543874  0.30275626    -0.11400
C2521       C  0.86154900  0.53245382  0.31459801    -0.10700
C2522       C  0.84686370  0.52500969  0.32066314    -0.01600
C2523       C  0.83132129  0.53062837  0.31434887    -0.11800
C2524       C  0.83046764  0.54362629  0.30250517    -0.10200
H2525       H  0.87225190  0.55090910  0.29836447     0.07700
H2526       H  0.87372652  0.52839898  0.31915344     0.11400
H2527       H  0.81976517  0.52517139  0.31876338     0.11100
H2528       H  0.81828039  0.54798118  0.29827685     0.07700
C2529       C  0.17154344  0.61930697  0.21192128    -0.11400
C2530       C  0.17810130  0.63564495  0.21103013     0.05700
C2531       C  0.17060823  0.64857403  0.22049223    -0.10200
C2532       C  0.15678883  0.64516107  0.23065417    -0.11800
C2533       C  0.15020221  0.62880046  0.23141634    -0.01600
C2534       C  0.15772918  0.61594210  0.22191746    -0.10700
C2535       C  0.19152394  0.63923007  0.19883426     0.05800
H2536       H  0.17543121  0.66129197  0.21998852     0.07700
H2537       H  0.15144876  0.65524105  0.23808998     0.11200
H2538       H  0.15279251  0.60326212  0.22201835     0.11400
H2539       H  0.17676268  0.60920287  0.20441877     0.07700
C2540       C  0.20501355  0.62794434  0.19682073    -0.11400
C2541       C  0.21546756  0.62916497  0.18286404    -0.10700
C2542       C  0.21243243  0.64155841  0.17066396    -0.01600
C2543       C  0.19989574  0.65370600  0.17345289    -0.11800
C2544       C  0.18957378  0.65259730  0.18745784    -0.10200
H2545       H  0.20689610  0.61764905  0.20556819     0.07700
H2546       H  0.22511227  0.61971593  0.18101066     0.11400
H2547       H  0.19755516  0.66359581  0.16435293     0.11100
H2548       H  0.17929472  0.66145407  0.18868992     0.07700
C2549       C  0.04248862  0.62994484  0.19236992    -0.11400
C2550       C  0.05012016  0.64401328  0.19976088     0.05700
C2551       C  0.04427174  0.66021054  0.19557211    -0.10200
C2552       C  0.03076917  0.66223469  0.18432986    -0.11800
C2553       C  0.02308233  0.64808301  0.17695136    -0.01600
C2554       C  0.02921673  0.63194129  0.18104631    -0.10700
C2555       C  0.06393808  0.64141199  0.21201089     0.05800
H2556       H  0.04997263  0.67122990  0.20119585     0.07700
H2557       H  0.02637675  0.67483416  0.18140340     0.11200
H2558       H  0.02371646  0.62076011  0.17554562     0.11400
H2559       H  0.04689259  0.61734723  0.19532598     0.07700
C2560       C  0.06137430  0.63115753  0.22606403    -0.11400
C2561       C  0.07467343  0.62698399  0.23677483    -0.10700
C2562       C  0.09102469  0.63262438  0.23349009    -0.01600
C2563       C  0.09344330  0.64344070  0.21970828    -0.11800
C2564       C  0.07998488  0.64788482  0.20912611    -0.10200
H2565       H  0.04904912  0.62618127  0.22862538     0.07700
H2566       H  0.07206251  0.61918718  0.24756661     0.11400
H2567       H  0.10580067  0.64797641  0.21667268     0.11100
H2568       H  0.08223904  0.65575251  0.19827545     0.07700
C2569       C  0.13651172  0.57681290  0.29620444    -0.11400
C2570       C  0.12424187  0.56422905  0.29573626     0.05700
C2571       C  0.11135911  0.56540122  0.28364776    -0.10200
C2572       C  0.11023802  0.57929802  0.27289854    -0.11800
C2573       C  0.12210186  0.59232706  0.27390667    -0.01600
C2574       C  0.13558699  0.59049077  0.28527977    -0.10700
C2575       C  0.12446321  0.55043720  0.30835165     0.05800
H2576       H  0.10200917  0.55562151  0.28258435     0.07700
H2577       H  0.10004141  0.57958421  0.26396021     0.11200
H2578       H  0.14515928  0.60008407  0.28614743     0.11400
H2579       H  0.14655780  0.57644386  0.30539987     0.07700
C2580       C  0.13968451  0.54362108  0.31429366    -0.11400
C2581       C  0.13983813  0.53145169  0.32696462    -0.10700
C2582       C  0.12477343  0.52574717  0.33389730    -0.01600
C2583       C  0.10955896  0.53230767  0.32775006    -0.11800
C2584       C  0.10940713  0.54454286  0.31517090    -0.10200
H2585       H  0.15150472  0.54766926  0.30914743     0.07700
H2586       H  0.15176884  0.52654829  0.33135036     0.11400
H2587       H  0.09773334  0.52816533  0.33282096     0.11100
H2588       H  0.09747439  0.54971133  0.31112922     0.07700
C2589       C  0.28692440  0.29448929  0.89339735    -0.11400
C2590       C  0.28027895  0.29953726  0.87778255     0.05700
C2591       C  0.28558906  0.29119526  0.86316438    -0.10200
C2592       C  0.29856147  0.27929727  0.86399238    -0.11800
C2593       C  0.30625731  0.27556658  0.87942890    -0.01600
C2594       C  0.29989206  0.28263626  0.89419900    -0.10700
C2595       C  0.27027031  0.31527120  0.87645344     0.05800
H2596       H  0.28078949  0.29495918  0.85096831     0.07700
H2597       H  0.30359253  0.27417556  0.85245620     0.11200
H2598       H  0.30586572  0.28001262  0.90618239     0.11400
H2599       H  0.28292500  0.30062585  0.90485081     0.07700
C2600       C  0.25604264  0.31635744  0.86600568    -0.11400
C2601       C  0.24788838  0.33186861  0.86356547    -0.10700
C2602       C  0.25409392  0.34655461  0.87121192    -0.01600
C2603       C  0.26809821  0.34535992  0.88189438    -0.11800
C2604       C  0.27603472  0.32989105  0.88455511    -0.10200
H2605       H  0.25140853  0.30527365  0.85957151     0.07700
H2606       H  0.23712180  0.33249779  0.85523799     0.11400
H2607       H  0.27300065  0.35644908  0.88811597     0.11100
H2608       H  0.28712515  0.32948753  0.89246114     0.07700
C2609       C  0.41711392  0.31649714  0.85550687    -0.11400
C2610       C  0.41065379  0.31403530  0.87171525     0.05700
C2611       C  0.41821092  0.32233341  0.88533808    -0.10200
C2612       C  0.43181510  0.33296384  0.88282832    -0.11800
C2613       C  0.43817442  0.33559961  0.86662365    -0.01600
C2614       C  0.43072852  0.32719698  0.85297834    -0.10700
C2615       C  0.39594806  0.30303604  0.87438501     0.05800
H2616       H  0.41338791  0.32088385  0.89792307     0.07700
H2617       H  0.43719445  0.33932322  0.89361198     0.11200
H2618       H  0.43537255  0.32892872  0.84035878     0.11400
H2619       H  0.41168963  0.31007257  0.84478435     0.07700
C2620       C  0.38248593  0.30337740  0.86300162    -0.11400
C2621       C  0.36883728  0.29277313  0.86520187    -0.10700
C2622       C  0.36827946  0.28134789  0.87872822    -0.01600
C2623       C  0.38156452  0.28141120  0.89045979    -0.11800
C2624       C  0.39522202  0.29215540  0.88829207    -0.10200
H2625       H  0.38247169  0.31189657  0.85238279     0.07700
H2626       H  0.35873903  0.29321645  0.85604697     0.11400
H2627       H  0.38178266  0.27314254  0.90119052     0.11100
H2628       H  0.40544011  0.29162904  0.89729433     0.07700
C2629       C  0.34126683  0.19247912  0.06378455    -0.11400
C2630       C  0.32728136  0.19728912  0.07324476     0.05700
C2631       C  0.31164390  0.19014933  0.06950197    -0.10200
C2632       C  0.31003504  0.17845418  0.05640316    -0.11800
C2633       C  0.32410850  0.17348473  0.04706079    -0.01600
C2634       C  0.33973106  0.18062402  0.05092148    -0.10700
C2635       C  0.32933609  0.20946271  0.08718845     0.05800
H2636       H  0.30069150  0.19370801  0.07663854     0.07700
H2637       H  0.29784240  0.17312643  0.05375217     0.11200
H2638       H  0.35080665  0.17706553  0.04397972     0.11400
H2639       H  0.35348629  0.19769063  0.06657033     0.07700
C2640       C  0.32398070  0.20548378  0.10346125    -0.11400
C2641       C  0.32785913  0.21611389  0.11698117    -0.10700
C2642       C  0.33711888  0.23089894  0.11441902    -0.01600
C2643       C  0.34166249  0.23526036  0.09797041    -0.11800
C2644       C  0.33787073  0.22462162  0.08451665    -0.10200
H2645       H  0.31746359  0.19379426  0.10581716     0.07700
H2646       H  0.32423479  0.21237132  0.12949424     0.11400
H2647       H  0.34842130  0.24678150  0.09552271     0.11100
H2648       H  0.34190543  0.22805507  0.07202683     0.07700
C2649       C  0.31744820  0.21453114  0.92164597    -0.11400
C2650       C  0.33107113  0.20696730  0.93016536     0.05700
C2651       C  0.34736399  0.21173552  0.92559165    -0.10200
C2652       C  0.34996096  0.22378892  0.91314049    -0.11800
C2653       C  0.33636681  0.23178064  0.90508807    -0.01600
C2654       C  0.32006772  0.22684985  0.90933722    -0.10700
C2655       C  0.32846991  0.19457465  0.94406754     0.05800
H2656       H  0.35824514  0.20652327  0.93191411     0.07700
H2657       H  0.36271669  0.22690819  0.90994419     0.11200
H2658       H  0.30928098  0.23277970  0.90349070     0.11400
H2659       H  0.30471416  0.21101766  0.92449559     0.07700
C2660       C  0.31440034  0.19566080  0.95461865    -0.11400
C2661       C  0.31251755  0.18454168  0.96814480    -0.10700
C2662       C  0.32482989  0.17233368  0.97166629    -0.01600
C2663       C  0.33875105  0.17108721  0.96107780    -0.11800
C2664       C  0.34043591  0.18187707  0.94735610    -0.10200
H2665       H  0.30500294  0.20535521  0.95273966     0.07700
H2666       H  0.30161689  0.18573699  0.97606865     0.11400
H2667       H  0.34827229  0.16154837  0.96324659     0.11100
H2668       H  0.35115593  0.18015247  0.93930409     0.07700
C2669       C  0.32793971  0.04696318  0.08165601    -0.11400
C2670       C  0.31479086  0.05881384  0.08106533     0.05700
C2671       C  0.30140701  0.05695420  0.09232501    -0.10200
C2672       C  0.30144327  0.04385890  0.10415149    -0.11800
C2673       C  0.31494256  0.03246312  0.10508189    -0.01600
C2674       C  0.32807016  0.03406301  0.09356350    -0.10700
C2675       C  0.31537490  0.07319881  0.06900910     0.05800
H2676       H  0.29113432  0.06590123  0.09235626     0.07700
H2677       H  0.29117426  0.04297788  0.11290091     0.11200
H2678       H  0.33856116  0.02536181  0.09379926     0.11400
H2679       H  0.33822349  0.04764635  0.07291363     0.07700
C2680       C  0.33076868  0.08070869  0.06504221    -0.11400
C2681       C  0.33155580  0.09388067  0.05346355    -0.10700
C2682       C  0.31695431  0.10008747  0.04564776    -0.01600
C2683       C  0.30149637  0.09285067  0.04978781    -0.11800
C2684       C  0.30071813  0.07952366  0.06130202    -0.10200
H2685       H  0.34228073  0.07651390  0.07099754     0.07700
H2686       H  0.34366389  0.09922976  0.05066528     0.11400
H2687       H  0.29002277  0.09730026  0.04392936     0.11100
H2688       H  0.28866693  0.07396348  0.06389306     0.07700
C2689       C  0.33131192  0.09109550  0.20954502    -0.11400
C2690       C  0.33849806  0.07500299  0.21132742     0.05700
C2691       C  0.35002261  0.07211613  0.22438858    -0.10200
C2692       C  0.35470205  0.08517247  0.23513304    -0.11800
C2693       C  0.34816450  0.10154065  0.23293650    -0.01600
C2694       C  0.33611472  0.10425127  0.22025677    -0.10700
C2695       C  0.33461987  0.06135176  0.19925817     0.05800
H2696       H  0.35547403  0.05972083  0.22624173     0.07700
H2697       H  0.36351574  0.08238655  0.24515262     0.11200
H2698       H  0.33073718  0.11658175  0.21822955     0.11400
H2699       H  0.32240422  0.09362093  0.19952600     0.07700
C2700       C  0.31801364  0.05749469  0.19486156    -0.11400
C2701       C  0.31457342  0.04431454  0.18366113    -0.10700
C2702       C  0.32770926  0.03494853  0.17650786    -0.01600
C2703       C  0.34430483  0.03900205  0.18081356    -0.11800
C2704       C  0.34770846  0.05199169  0.19211359    -0.10200
H2705       H  0.30772025  0.06451334  0.20028115     0.07700
H2706       H  0.30166484  0.04152320  0.18053664     0.11400
H2707       H  0.35471806  0.03207854  0.17550430     0.11100
H2708       H  0.36062543  0.05485242  0.19516294     0.07700
C2709       C  0.41014958  0.84930934  0.28351467    -0.11400
C2710       C  0.41150608  0.86227479  0.29548561     0.05700
C2711       C  0.39853213  0.87426863  0.29639485    -0.10200
C2712       C  0.38461713  0.87329954  0.28569727    -0.11800
C2713       C  0.38309546  0.86027466  0.27377278    -0.01600
C2714       C  0.39616943  0.84828232  0.27283191    -0.10700
C2715       C  0.42618119  0.86318445  0.30719680     0.05800
H2716       H  0.39891796  0.88426170  0.30564541     0.07700
H2717       H  0.37480057  0.88268423  0.28689257     0.11200
H2718       H  0.39587295  0.83795761  0.26405774     0.11400
H2719       H  0.41998433  0.83996221  0.28228525     0.07700
C2720       C  0.43357510  0.84843927  0.31379264    -0.11400
C2721       C  0.44678162  0.84937745  0.32543494    -0.10700
C2722       C  0.45288662  0.86507862  0.33084435    -0.01600
C2723       C  0.44577231  0.87979909  0.32396642    -0.11800
C2724       C  0.43264261  0.87886408  0.31227467    -0.10200
H2725       H  0.42886139  0.83614201  0.31033457     0.07700
H2726       H  0.45200557  0.83778296  0.33042675     0.11400
H2727       H  0.45027556  0.89210330  0.32769833     0.11100
H2728       H  0.42755705  0.89047935  0.30720205     0.07700
C2729       C  0.30467524  0.83768934  0.29259284    -0.11400
C2730       C  0.29187279  0.84989800  0.29286702     0.05700
C2731       C  0.29324818  0.86415464  0.28244458    -0.10200
C2732       C  0.30749069  0.86645570  0.27252999    -0.11800
C2733       C  0.32062224  0.85468010  0.27313333    -0.01600
C2734       C  0.31892885  0.84011492  0.28290923    -0.10700
C2735       C  0.27851672  0.84866970  0.30569129     0.05800
H2736       H  0.28356772  0.87375787  0.28239600     0.07700
H2737       H  0.30863470  0.87781464  0.26512418     0.11200
H2738       H  0.32894224  0.83086540  0.28347688     0.11400
H2739       H  0.30416141  0.82672328  0.30065525     0.07700
C2740       C  0.27141747  0.83298651  0.30975119    -0.11400
C2741       C  0.26204967  0.83110298  0.32442127    -0.10700
C2742       C  0.25963783  0.84487777  0.33514231    -0.01600
C2743       C  0.26548363  0.86079711  0.33042952    -0.11800
C2744       C  0.27478953  0.86271102  0.31578675    -0.10200
H2745       H  0.27395358  0.82198854  0.30210563     0.07700
H2746       H  0.25772319  0.81870508  0.32799209     0.11400
H2747       H  0.26386839  0.87150212  0.33872711     0.11100
H2748       H  0.28021510  0.87489336  0.31314264     0.07700
C2749       C  0.34310436  0.94663253  0.19965351    -0.11400
C2750       C  0.33160543  0.93340379  0.20155081     0.05700
C2751       C  0.31622212  0.93439968  0.19279368    -0.10200
C2752       C  0.31272068  0.94798335  0.18201733    -0.11800
C2753       C  0.32462924  0.96068826  0.17959902    -0.01600
C2754       C  0.33973140  0.95998165  0.18870118    -0.10700
C2755       C  0.33599498  0.91847454  0.21218353     0.05800
H2756       H  0.30711937  0.92440125  0.19378877     0.07700
H2757       H  0.30104652  0.94815767  0.17500973     0.11200
H2758       H  0.34906347  0.96971349  0.18719563     0.11400
H2759       H  0.35485245  0.94661942  0.20651921     0.07700
C2760       C  0.35260923  0.91248648  0.21294318    -0.11400
C2761       C  0.35694798  0.89876439  0.22309947    -0.10700
C2762       C  0.34477631  0.89047193  0.23262395    -0.01600
C2763       C  0.32810502  0.89610730  0.23160874    -0.11800
C2764       C  0.32377098  0.91002844  0.22160128    -0.10200
H2765       H  0.36230721  0.91828420  0.20552676     0.07700
H2766       H  0.36984346  0.89448749  0.22331910     0.11400
H2767       H  0.31847239  0.89001174  0.23885311     0.11100
H2768       H  0.31089551  0.91434400  0.22148984     0.07700
C2769       C  0.30385946  0.06119595  0.92318463    -0.11400
C2770       C  0.31788696  0.07049847  0.92841931     0.05700
C2771       C  0.33268006  0.06947889  0.91904020    -0.10200
C2772       C  0.33369749  0.05881025  0.90518116    -0.11800
C2773       C  0.31989176  0.04904938  0.90029792    -0.01600
C2774       C  0.30484009  0.05058885  0.90919102    -0.10700
C2775       C  0.31738154  0.08095471  0.94381447     0.05800
H2776       H  0.34355517  0.07682387  0.92253290     0.07700
H2777       H  0.34539889  0.05799893  0.89843649     0.11200
H2778       H  0.29404679  0.04310392  0.90574116     0.11400
H2779       H  0.29232734  0.06168440  0.93023184     0.07700
C2780       C  0.30337449  0.09105903  0.94744483    -0.11400
C2781       C  0.30345618  0.10160737  0.96151506    -0.10700
C2782       C  0.31757217  0.10226307  0.97213178    -0.01600
C2783       C  0.33133440  0.09175609  0.96878468    -0.11800
C2784       C  0.33120742  0.08116297  0.95482392    -0.10200
H2785       H  0.29258612  0.09120345  0.93912758     0.07700
H2786       H  0.29270398  0.10964079  0.96376940     0.11400
H2787       H  0.34230916  0.09186005  0.97685680     0.11100
H2788       H  0.34201280  0.07320349  0.95256399     0.07700
C2789       C  0.32348211  0.93654236  0.09139423    -0.11400
C2790       C  0.30907030  0.93587789  0.08120095     0.05700
C2791       C  0.29515106  0.94589522  0.08544117    -0.10200
C2792       C  0.29614922  0.95725278  0.09891700    -0.11800
C2793       C  0.31111486  0.95878479  0.10819420    -0.01600
C2794       C  0.32454092  0.94794180  0.10462570    -0.10700
C2795       C  0.30939399  0.92578594  0.06551847     0.05800
H2796       H  0.28386096  0.94559597  0.07783605     0.07700
H2797       H  0.28557525  0.96542016  0.10150367     0.11200
H2798       H  0.33609372  0.94857635  0.11180809     0.11400
H2799       H  0.33421269  0.92859018  0.08878426     0.07700
C2800       C  0.32395585  0.92572348  0.05575288    -0.11400
C2801       C  0.32505590  0.91575096  0.04145185    -0.10700
C2802       C  0.31156522  0.90564899  0.03638224    -0.01600
C2803       C  0.29667801  0.90614704  0.04570158    -0.11800
C2804       C  0.29559792  0.91616293  0.06019092    -0.10200
H2805       H  0.33461634  0.93339381  0.05921271     0.07700
H2806       H  0.33662302  0.91584814  0.03444404     0.11400
H2807       H  0.28608073  0.89847015  0.04206985     0.11100
H2808       H  0.28420048  0.91601609  0.06746113     0.07700
C2809       C  0.33009706  0.92796654  0.94164822    -0.11400
C2810       C  0.31607338  0.93855651  0.93964798     0.05700
C2811       C  0.30159809  0.93515766  0.94904804    -0.10200
C2812       C  0.30135294  0.92162234  0.96038412    -0.11800
C2813       C  0.31564985  0.91146449  0.96263619    -0.01600
C2814       C  0.32994091  0.91474539  0.95308994    -0.10700
C2815       C  0.31681330  0.95286043  0.92760587     0.05800
H2816       H  0.29060027  0.94311088  0.94788151     0.07700
H2817       H  0.29019381  0.91936771  0.96766935     0.11200
H2818       H  0.34105478  0.90695578  0.95437123     0.11400
H2819       H  0.34125374  0.92977612  0.93424804     0.07700
C2820       C  0.33195035  0.96151773  0.92528816    -0.11400
C2821       C  0.33341815  0.97364472  0.91275094    -0.10700
C2822       C  0.31970865  0.97766821  0.90236779    -0.01600
C2823       C  0.30429218  0.96971640  0.90520439    -0.11800
C2824       C  0.30286871  0.95738115  0.91767046    -0.10200
H2825       H  0.34280563  0.95878958  0.93306184     0.07700
H2826       H  0.34538245  0.97976494  0.91111236     0.11400
H2827       H  0.29344659  0.97268689  0.89749690     0.11100
H2828       H  0.29103688  0.95096485  0.91907245     0.07700
C2829       C  0.56311555  0.28486716  0.12954281    -0.11400
C2830       C  0.56313158  0.29763945  0.14170940     0.05700
C2831       C  0.57730309  0.29964574  0.15202086    -0.10200
C2832       C  0.59128075  0.28918635  0.14999173    -0.11800
C2833       C  0.59150657  0.27658987  0.13750407    -0.01600
C2834       C  0.57703002  0.27441630  0.12751220    -0.10700
C2835       C  0.54837255  0.30884818  0.14340753     0.05800
H2836       H  0.57764479  0.30941920  0.16151445     0.07700
H2837       H  0.60199718  0.29093282  0.15821394     0.11200
H2838       H  0.57593788  0.26443735  0.11840006     0.11400
H2839       H  0.55215524  0.28275716  0.12174061     0.07700
C2840       C  0.54047861  0.31536337  0.12898702    -0.11400
C2841       C  0.52649443  0.32583057  0.13035691    -0.10700
C2842       C  0.52005617  0.33003015  0.14619290    -0.01600
C2843       C  0.52788185  0.32343334  0.16066000    -0.11800
C2844       C  0.54195757  0.31296776  0.15927637    -0.10200
H2845       H  0.54528912  0.31254947  0.11661293     0.07700
H2846       H  0.52084915  0.33079143  0.11897073     0.11400
H2847       H  0.52323922  0.32648328  0.17304163     0.11100
H2848       H  0.54772879  0.30796337  0.17058239     0.07700
C2849       C  0.63660573  0.08017416  0.04488083    -0.11400
C2850       C  0.64909779  0.08053002  0.05742852     0.05700
C2851       C  0.66139131  0.09316029  0.05667803    -0.10200
C2852       C  0.66093905  0.10534255  0.04394372    -0.11800
C2853       C  0.64807771  0.10527686  0.03181674    -0.01600
C2854       C  0.63602439  0.09246699  0.03232972    -0.10700
C2855       C  0.64888205  0.06814269  0.07151198     0.05800
H2856       H  0.67107439  0.09396135  0.06622527     0.07700
H2857       H  0.67031453  0.11515388  0.04392722     0.11200
H2858       H  0.62606173  0.09199160  0.02303922     0.11400
H2859       H  0.62717442  0.07042369  0.04479519     0.07700
C2860       C  0.63358003  0.06290377  0.07835403    -0.11400
C2861       C  0.63321390  0.05141653  0.09163005    -0.10700
C2862       C  0.64813904  0.04489529  0.09851388    -0.01600
C2863       C  0.66347411  0.05011463  0.09173975    -0.11800
C2864       C  0.66384140  0.06160150  0.07838905    -0.10200
H2865       H  0.62181822  0.06789241  0.07363132     0.07700
H2866       H  0.62118258  0.04769662  0.09654331     0.11400
H2867       H  0.67520493  0.04526717  0.09669739     0.11100
H2868       H  0.67584204  0.06518914  0.07331886     0.07700
C2869       C  0.62244080  0.18337283  0.06259798    -0.11400
C2870       C  0.63328260  0.19699635  0.06542935     0.05700
C2871       C  0.64652388  0.19972092  0.05423242    -0.10200
C2872       C  0.64871323  0.18915654  0.04038179    -0.11800
C2873       C  0.63753691  0.17589227  0.03736538    -0.01600
C2874       C  0.62445582  0.17302729  0.04862234    -0.10700
C2875       C  0.63040132  0.20856265  0.07973451     0.05800
H2876       H  0.65496251  0.21022428  0.05595421     0.07700
H2877       H  0.65890973  0.19157322  0.03183779     0.11200
H2878       H  0.61588417  0.16265206  0.04672048     0.11400
H2879       H  0.61238519  0.18067022  0.07121252     0.07700
C2880       C  0.61399901  0.21292997  0.08429136    -0.11400
C2881       C  0.61111305  0.22380617  0.09768608    -0.10700
C2882       C  0.62456497  0.23087830  0.10667279    -0.01600
C2883       C  0.64098944  0.22653141  0.10214193    -0.11800
C2884       C  0.64388201  0.21542314  0.08884239    -0.10200
H2885       H  0.60333177  0.20809249  0.07737799     0.07700
H2886       H  0.59828032  0.22658684  0.10100063     0.11400
H2887       H  0.65164828  0.23192653  0.10860744     0.11100
H2888       H  0.65666764  0.21216563  0.08573739     0.07700
C2889       C  0.63919773  0.22692935  0.91430785    -0.11400
C2890       C  0.62743920  0.21535342  0.92053871     0.05700
C2891       C  0.61203457  0.21372588  0.91199603    -0.10200
C2892       C  0.60828119  0.22366730  0.89801339    -0.11800
C2893       C  0.61991247  0.23531887  0.89196328    -0.01600
C2894       C  0.63550733  0.23671931  0.90006247    -0.10700
C2895       C  0.63107701  0.20478650  0.93568452     0.05800
H2896       H  0.60285072  0.20461493  0.91598546     0.07700
H2897       H  0.59626685  0.22214674  0.89180954     0.11200
H2898       H  0.64462115  0.24573567  0.89568059     0.11400
H2899       H  0.65111970  0.22867350  0.92060140     0.07700
C2900       C  0.64730854  0.19856890  0.93905603    -0.11400
C2901       C  0.65024192  0.18743681  0.95245144    -0.10700
C2902       C  0.63698563  0.18214283  0.96265253    -0.01600
C2903       C  0.62093855  0.18888557  0.95972122    -0.11800
C2904       C  0.61805742  0.20015670  0.94654169    -0.10200
H2905       H  0.65764600  0.20173873  0.93096253     0.07700
H2906       H  0.66275062  0.18244695  0.95438956     0.11400
H2907       H  0.61049040  0.18525965  0.96749511     0.11100
H2908       H  0.60550736  0.20507783  0.94475903     0.07700
C2909       C  0.56253547  0.29450206  0.87473344    -0.11400
C2910       C  0.55138140  0.29453662  0.86103375     0.05700
C2911       C  0.55480333  0.28397445  0.84728822    -0.10200
C2912       C  0.56927152  0.27393662  0.84704125    -0.11800
C2913       C  0.58072922  0.27421359  0.86059790    -0.01600
C2914       C  0.57700196  0.28457274  0.87446873    -0.10700
C2915       C  0.53693386  0.30644232  0.86066557     0.05800
H2916       H  0.54636944  0.28362654  0.83658233     0.07700
H2917       H  0.57146230  0.26649034  0.83594690     0.11200
H2918       H  0.58559312  0.28527859  0.88503600     0.11400
H2919       H  0.56045231  0.30268282  0.88541066     0.07700
C2920       C  0.52772712  0.30985828  0.87528381    -0.11400
C2921       C  0.51521213  0.32226675  0.87525180    -0.10700
C2922       C  0.51154304  0.33141351  0.86056425    -0.01600
C2923       C  0.52033672  0.32760519  0.84582149    -0.11800
C2924       C  0.53293122  0.31531897  0.84588725    -0.10200
H2925       H  0.53032547  0.30305089  0.88680105     0.07700
H2926       H  0.50847238  0.32476927  0.88674418     0.11400
H2927       H  0.51782293  0.33447799  0.83432227     0.11100
H2928       H  0.53993528  0.31319616  0.83448683     0.07700
C2929       C  0.65765244  0.94937170  0.08594539    -0.11400
C2930       C  0.64262427  0.94607822  0.07714542     0.05700
C2931       C  0.62840869  0.95585908  0.08100504    -0.10200
C2932       C  0.62922164  0.96852216  0.09320197    -0.11800
C2933       C  0.64433262  0.97197964  0.10165435    -0.01600
C2934       C  0.65853363  0.96226270  0.09789436    -0.10700
C2935       C  0.64190110  0.93265661  0.06394575     0.05800
H2936       H  0.61667492  0.95402660  0.07439936     0.07700
H2937       H  0.61804160  0.97582104  0.09579289     0.11200
H2938       H  0.67031107  0.96448592  0.10433068     0.11400
H2939       H  0.66878462  0.94188380  0.08379928     0.07700
C2940       C  0.65623808  0.92857247  0.05458549    -0.11400
C2941       C  0.65587163  0.91571424  0.04263486    -0.10700
C2942       C  0.64106744  0.90681083  0.03934661    -0.01600
C2943       C  0.62655075  0.91111194  0.04823920    -0.11800
C2944       C  0.62700015  0.92375881  0.06053506    -0.10200
H2945       H  0.66780773  0.93540666  0.05629890     0.07700
H2946       H  0.66720247  0.91289319  0.03577408     0.11400
H2947       H  0.61495224  0.90444992  0.04596006     0.11100
H2948       H  0.61572232  0.92627199  0.06755900     0.07700
C2949       C  0.66849258  0.06635099  0.91466680    -0.11400
C2950       C  0.65345308  0.07053565  0.92278058     0.05700
C2951       C  0.63919614  0.06068363  0.91977173    -0.10200
C2952       C  0.63978807  0.04725761  0.90856650    -0.11800
C2953       C  0.65469806  0.04323303  0.90022185    -0.01600
C2954       C  0.66912601  0.05275233  0.90351374    -0.10700
C2955       C  0.65249708  0.08494041  0.93454787     0.05800
H2956       H  0.62755625  0.06326133  0.92618637     0.07700
H2957       H  0.62851363  0.04000718  0.90645830     0.11200
H2958       H  0.68078033  0.04991199  0.89722877     0.11400
H2959       H  0.67966713  0.07376912  0.91668527     0.07700
C2960       C  0.66573111  0.08830176  0.94575430    -0.11400
C2961       C  0.66419012  0.10103357  0.95773869    -0.10700
C2962       C  0.64931217  0.11043275  0.95886264    -0.01600
C2963       C  0.63629297  0.10747247  0.94735368    -0.11800
C2964       C  0.63793541  0.09495309  0.93519729    -0.10200
H2965       H  0.67702740  0.08070667  0.94567781     0.07700
H2966       H  0.67437732  0.10307628  0.96655113     0.11400
H2967       H  0.62479720  0.11475308  0.94783754     0.11100
H2968       H  0.62769802  0.09296006  0.92643869     0.07700
C2969       C  0.66496473  0.92314064  0.94847256    -0.11400
C2970       C  0.65124139  0.93360273  0.94439021     0.05700
C2971       C  0.63607843  0.93118259  0.95293668    -0.10200
C2972       C  0.63443593  0.91820688  0.96461925    -0.11800
C2973       C  0.64800598  0.90751102  0.96835777    -0.01600
C2974       C  0.66338901  0.91030595  0.96041468    -0.10700
C2975       C  0.65235210  0.94640216  0.93073331     0.05800
H2976       H  0.62537663  0.93928143  0.95056568     0.07700
H2977       H  0.62251002  0.91659303  0.97078149     0.11200
H2978       H  0.67409222  0.90229700  0.96311125     0.11400
H2979       H  0.67678826  0.92449022  0.94208018     0.07700
C2980       C  0.66729265  0.95519823  0.92759485    -0.11400
C2981       C  0.66816089  0.96686632  0.91440315    -0.10700
C2982       C  0.65404936  0.97011279  0.90424633    -0.01600
C2983       C  0.63916051  0.96140483  0.90744910    -0.11800
C2984       C  0.63836099  0.94963552  0.92038443    -0.10200
H2985       H  0.67826601  0.95321221  0.93541681     0.07700
H2986       H  0.67977324  0.97349567  0.91229747     0.11400
H2987       H  0.62809917  0.96349682  0.89976241     0.11100
H2988       H  0.62678022  0.94283625  0.92202880     0.07700
C2989       C  0.63242125  0.93353464  0.22328053    -0.11400
C2990       C  0.63808053  0.93116480  0.20679679     0.05700
C2991       C  0.64024262  0.91461068  0.20076676    -0.10200
C2992       C  0.63610888  0.90075735  0.21081271    -0.11800
C2993       C  0.62964413  0.90327409  0.22695214    -0.01600
C2994       C  0.62822100  0.91976145  0.23321678    -0.10700
C2995       C  0.64063734  0.94595558  0.19569768     0.05800
H2996       H  0.64448503  0.91239584  0.18807019     0.07700
H2997       H  0.63730787  0.88815880  0.20573294     0.11200
H2998       H  0.62368137  0.92201504  0.24580619     0.11400
H2999       H  0.63100555  0.94609475  0.22842326     0.07700
C3000       C  0.62901954  0.95934107  0.19576263    -0.11400
C3001       C  0.63068134  0.97286366  0.18470481    -0.10700
C3002       C  0.64412820  0.97343547  0.17350808    -0.01600
C3003       C  0.65606108  0.96036128  0.17374709    -0.11800
C3004       C  0.65424840  0.94665373  0.18464042    -0.10200
H3005       H  0.61829721  0.95909578  0.20399573     0.07700
H3006       H  0.62133300  0.98280068  0.18476900     0.11400
H3007       H  0.66647909  0.96046903  0.16512202     0.11100
H3008       H  0.66345021  0.93659007  0.18439552     0.07700
C3009       C  0.57599371  0.86078761  0.29164493    -0.11400
C3010       C  0.56371585  0.87349271  0.29154654     0.05700
C3011       C  0.56501243  0.88667644  0.27984953    -0.10200
C3012       C  0.57845596  0.88726239  0.26867181    -0.11800
C3013       C  0.59092946  0.87462175  0.26896422    -0.01600
C3014       C  0.58923219  0.86123928  0.28040343    -0.10700
C3015       C  0.54982430  0.87292831  0.30382764     0.05800
H3016       H  0.55556809  0.89649992  0.27926305     0.07700
H3017       H  0.57880196  0.89761715  0.25993224     0.11200
H3018       H  0.59849815  0.85122896  0.28090127     0.11400
H3019       H  0.57557944  0.85058988  0.30065517     0.07700
C3020       C  0.54275297  0.85740609  0.30835353    -0.11400
C3021       C  0.53065832  0.85656539  0.32085936    -0.10700
C3022       C  0.52520511  0.87124844  0.32904355    -0.01600
C3023       C  0.53182197  0.88686680  0.32415186    -0.11800
C3024       C  0.54404794  0.88769601  0.31169862    -0.10200
H3025       H  0.54663122  0.84583869  0.30226687     0.07700
H3026       H  0.52563743  0.84436923  0.32416662     0.11400
H3027       H  0.52782012  0.89841897  0.33019424     0.11100
H3028       H  0.54933296  0.89983276  0.30861126     0.07700
C3029       C  0.61495194  0.18341334  0.20463029    -0.11400
C3030       C  0.62999631  0.19159684  0.20125030     0.05700
C3031       C  0.64445670  0.18743530  0.21049902    -0.10200
C3032       C  0.64368545  0.17548606  0.22344528    -0.11800
C3033       C  0.62841481  0.16771158  0.22727314    -0.01600
C3034       C  0.61418002  0.17151156  0.21741834    -0.10700
C3035       C  0.63001622  0.20513662  0.18869220     0.05800
H3036       H  0.65616953  0.19372627  0.20797365     0.07700
H3037       H  0.65483137  0.17279832  0.23080460     0.11200
H3038       H  0.60233720  0.16536300  0.21964231     0.11400
H3039       H  0.60372181  0.18645689  0.19751287     0.07700
C3040       C  0.63330519  0.20154369  0.17180499    -0.11400
C3041       C  0.63118841  0.21405766  0.15959699    -0.10700
C3042       C  0.62555757  0.23022345  0.16414362    -0.01600
C3043       C  0.62255825  0.23382140  0.18112886    -0.11800
C3044       C  0.62478303  0.22135528  0.19331403    -0.10200
H3045       H  0.63702128  0.18895595  0.16804638     0.07700
H3046       H  0.63333200  0.21091917  0.14654823     0.11400
H3047       H  0.61833650  0.24622538  0.18494850     0.11100
H3048       H  0.62198971  0.22420765  0.20630391     0.07700
C3049       C  0.63648809  0.08271147  0.22575934    -0.11400
C3050       C  0.64382119  0.08659354  0.21031049     0.05700
C3051       C  0.64837787  0.10329900  0.20693939    -0.10200
C3052       C  0.64492303  0.11607695  0.21859318    -0.11800
C3053       C  0.63701000  0.11228494  0.23385158    -0.01600
C3054       C  0.63324486  0.09538379  0.23746337    -0.10700
C3055       C  0.64505054  0.07345346  0.19722242     0.05800
H3056       H  0.65385765  0.10655534  0.19498008     0.07700
H3057       H  0.64773533  0.12897755  0.21528695     0.11200
H3058       H  0.62745488  0.09196327  0.24921559     0.11400
H3059       H  0.63293402  0.06987359  0.22859923     0.07700
C3060       C  0.66049751  0.06873411  0.19029402    -0.11400
C3061       C  0.66127920  0.05589861  0.17816704    -0.10700
C3062       C  0.64656794  0.04786183  0.17261546    -0.01600
C3063       C  0.63115685  0.05286518  0.17950041    -0.11800
C3064       C  0.63043393  0.06541812  0.19171810    -0.10200
H3065       H  0.67191956  0.07479968  0.19444493     0.07700
H3066       H  0.67332682  0.05233672  0.17309212     0.11400
H3067       H  0.61957658  0.04697997  0.17554518     0.11100
H3068       H  0.61838955  0.06896373  0.19683784     0.07700
C3069       C  0.56866756  0.14710412  0.28347682    -0.11400
C3070       C  0.56936414  0.13535650  0.29660327     0.05700
C3071       C  0.58351851  0.12496372  0.29829359    -0.10200
C3072       C  0.59695865  0.12666384  0.28738901    -0.11800
C3073       C  0.59670324  0.13889121  0.27458550    -0.01600
C3074       C  0.58212118  0.14882375  0.27252394    -0.10700
C3075       C  0.55559984  0.13418839  0.30882581     0.05800
H3076       H  0.58440564  0.11583225  0.30836792     0.07700
H3077       H  0.60785990  0.11867896  0.28922711     0.11200
H3078       H  0.58081058  0.15806372  0.26270757     0.11400
H3079       H  0.55769895  0.15501132  0.28171978     0.07700
C3080       C  0.54861579  0.14883268  0.31587160    -0.11400
C3081       C  0.53623464  0.14765881  0.32810606    -0.10700
C3082       C  0.53057937  0.13181226  0.33343319    -0.01600
C3083       C  0.53741731  0.11720018  0.32616682    -0.11800
C3084       C  0.54981416  0.11838081  0.31401118    -0.10200
H3085       H  0.55300160  0.16117234  0.31218626     0.07700
H3086       H  0.53115320  0.15914061  0.33342727     0.11400
H3087       H  0.53322919  0.10480644  0.32989672     0.11100
H3088       H  0.55487365  0.10691777  0.30862431     0.07700
C3089       C  0.55657297  0.45216777  0.86688391    -0.11400
C3090       C  0.55325947  0.44186448  0.85290426     0.05700
C3091       C  0.56338634  0.44344777  0.83861028    -0.10200
C3092       C  0.57684051  0.45474367  0.83854280    -0.11800
C3093       C  0.58044452  0.46457847  0.85280133    -0.01600
C3094       C  0.57002119  0.46330894  0.86686130    -0.10700
C3095       C  0.53971232  0.42909243  0.85367801     0.05800
H3096       H  0.56121632  0.43560294  0.82768548     0.07700
H3097       H  0.58467115  0.45545625  0.82752712     0.11200
H3098       H  0.57229784  0.47090994  0.87794028     0.11400
H3099       H  0.54879286  0.45154395  0.87794061     0.07700
C3100       C  0.53736284  0.41977952  0.86847429    -0.11400
C3101       C  0.52460938  0.40789034  0.86953126    -0.10700
C3102       C  0.51394337  0.40485211  0.85576553    -0.01600
C3103       C  0.51631208  0.41403216  0.84088104    -0.11800
C3104       C  0.52906659  0.42606712  0.83985475    -0.10200
H3105       H  0.54553487  0.42155214  0.87923824     0.07700
H3106       H  0.52321569  0.40093350  0.88113001     0.11400
H3107       H  0.50819202  0.41205122  0.83011494     0.11100
H3108       H  0.53045658  0.43316408  0.82834521     0.07700
C3109       C  0.54948336  0.58811534  0.84249640    -0.11400
C3110       C  0.55260813  0.57785569  0.85659482     0.05700
C3111       C  0.54317900  0.58065579  0.87120405    -0.10200
C3112       C  0.53108191  0.59345289  0.87175531    -0.11800
C3113       C  0.52798900  0.60368183  0.85766738    -0.01600
C3114       C  0.53726903  0.60081088  0.84300057    -0.10700
C3115       C  0.56545568  0.56415497  0.85603192     0.05800
H3116       H  0.54498423  0.57280928  0.88219073     0.07700
H3117       H  0.52408611  0.59528245  0.88321385     0.11200
H3118       H  0.53529853  0.60857584  0.83197506     0.11400
H3119       H  0.55665104  0.58651288  0.83111897     0.07700
C3120       C  0.56779338  0.55457894  0.84134073    -0.11400
C3121       C  0.57941095  0.54132288  0.84100010    -0.10700
C3122       C  0.58883565  0.53719363  0.85539052    -0.01600
C3123       C  0.58672621  0.54689759  0.87000180    -0.11800
C3124       C  0.57525826  0.56027771  0.87028912    -0.10200
H3125       H  0.56033392  0.55703022  0.83019424     0.07700
H3126       H  0.58070561  0.53402648  0.82958206     0.11400
H3127       H  0.59396247  0.54415413  0.88123907     0.11100
H3128       H  0.57408903  0.56759793  0.88170135     0.07700
C3129       C  0.43041680  0.59754537  0.87125632    -0.11400
C3130       C  0.42733824  0.58738168  0.85709171     0.05700
C3131       C  0.43767905  0.58930349  0.84297235    -0.10200
C3132       C  0.45088389  0.60089041  0.84315092    -0.11800
C3133       C  0.45415624  0.61067761  0.85751111    -0.01600
C3134       C  0.44370640  0.60893969  0.87150237    -0.10700
C3135       C  0.41361778  0.57464958  0.85726937     0.05800
H3136       H  0.43582827  0.58157443  0.83191283     0.07700
H3137       H  0.45877937  0.60189679  0.83220498     0.11200
H3138       H  0.44576890  0.61646164  0.88267601     0.11400
H3139       H  0.42250936  0.59674065  0.88220228     0.07700
C3140       C  0.41002059  0.56566816  0.87204356    -0.11400
C3141       C  0.39713013  0.55379719  0.87235874    -0.10700
C3142       C  0.38758240  0.55043517  0.85786505    -0.01600
C3143       C  0.39119530  0.55931344  0.84304799    -0.11800
C3144       C  0.40401225  0.57130940  0.84276557    -0.10200
H3145       H  0.41733207  0.56763251  0.88337182     0.07700
H3146       H  0.39475624  0.54711570  0.88394488     0.11400
H3147       H  0.38398750  0.55712386  0.83168760     0.11100
H3148       H  0.40623527  0.57813129  0.83123398     0.07700
C3149       C  0.42091599  0.58784925  0.16428866    -0.11400
C3150       C  0.41723241  0.57735736  0.15048023     0.05700
C3151       C  0.42674169  0.57927701  0.13577069    -0.10200
C3152       C  0.43930198  0.59146393  0.13480840    -0.11800
C3153       C  0.44292764  0.60188010  0.14861904    -0.01600
C3154       C  0.43367820  0.59984115  0.16340935    -0.10700
C3155       C  0.40364158  0.56445415  0.15138738     0.05800
H3156       H  0.42467111  0.57122371  0.12499173     0.07700
H3157       H  0.44629296  0.59261424  0.12326983     0.11200
H3158       H  0.43609059  0.60774625  0.17424364     0.11400
H3159       H  0.41376230  0.58705156  0.17573870     0.07700
C3160       C  0.39986130  0.55633103  0.16662577    -0.11400
C3161       C  0.38747436  0.54391223  0.16730132    -0.10700
C3162       C  0.37870469  0.53909885  0.15272312    -0.01600
C3163       C  0.38225385  0.54735549  0.13756377    -0.11800
C3164       C  0.39443382  0.55993733  0.13692899    -0.10200
H3165       H  0.40675223  0.55920747  0.17801143     0.07700
H3166       H  0.38505760  0.53778763  0.17918046     0.11400
H3167       H  0.37558969  0.54410482  0.12612680     0.11100
H3168       H  0.39654292  0.56615995  0.12505164     0.07700
C3169       C  0.56458866  0.56106104  0.16312422    -0.11400
C3170       C  0.55492321  0.56437371  0.14864226     0.05700
C3171       C  0.55764447  0.55453293  0.13420601    -0.10200
C3172       C  0.56986295  0.54191281  0.13414113    -0.11800
C3173       C  0.57951475  0.53864687  0.14857653    -0.01600
C3174       C  0.57668878  0.54826895  0.16311769    -0.10700
C3175       C  0.54200387  0.57794740  0.14850215     0.05800
H3176       H  0.55018773  0.55642032  0.12295221     0.07700
H3177       H  0.57165797  0.53462144  0.12278954     0.11200
H3178       H  0.58400625  0.54609525  0.17442396     0.11400
H3179       H  0.56301710  0.56852052  0.17439365     0.07700
C3180       C  0.53240676  0.58140585  0.16285881    -0.11400
C3181       C  0.51991172  0.59381042  0.16245842    -0.10700
C3182       C  0.51659623  0.60284857  0.14763946    -0.01600
C3183       C  0.52626883  0.59954084  0.13335638    -0.11800
C3184       C  0.53891944  0.58735826  0.13382639    -0.10200
H3185       H  0.53426137  0.57427478  0.17431033     0.07700
H3186       H  0.51260657  0.59607551  0.17364377     0.11400
H3187       H  0.52415003  0.60647664  0.12181740     0.11100
H3188       H  0.54632924  0.58537863  0.12266652     0.07700
C3189       C  0.56859011  0.43971550  0.13873275    -0.11400
C3190       C  0.55758389  0.43837603  0.15234384     0.05700
C3191       C  0.55914197  0.44983084  0.16576241    -0.10200
C3192       C  0.57118240  0.46259304  0.16534784    -0.11800
C3193       C  0.58173589  0.46422048  0.15143139    -0.01600
C3194       C  0.58044004  0.45255121  0.13823162    -0.10700
C3195       C  0.54416757  0.42546503  0.15213716     0.05800
H3196       H  0.55075005  0.44922285  0.17635428     0.07700
H3197       H  0.57192421  0.47146198  0.17566772     0.11200
H3198       H  0.58862605  0.45334216  0.12748108     0.11400
H3199       H  0.56798706  0.43086519  0.12839119     0.07700
C3200       C  0.53545578  0.42193306  0.13714670    -0.11400
C3201       C  0.52277505  0.40990150  0.13677919    -0.10700
C3202       C  0.51840301  0.40114966  0.15141579    -0.01600
C3203       C  0.52707456  0.40466639  0.16644506    -0.11800
C3204       C  0.53983439  0.41669903  0.16679971    -0.10200
H3205       H  0.53827639  0.42866383  0.12569642     0.07700
H3206       H  0.51631714  0.40754012  0.12501040     0.11400
H3207       H  0.52409060  0.39803270  0.17790962     0.11100
H3208       H  0.54644340  0.41899642  0.17849544     0.07700
C3209       C  0.54939755  0.85912000  0.42095637    -0.11400
C3210       C  0.54965100  0.87342026  0.43143914     0.05700
C3211       C  0.53841716  0.88668204  0.42795903    -0.10200
C3212       C  0.52719215  0.88567794  0.41442162    -0.11800
C3213       C  0.52681685  0.87134553  0.40404488    -0.01600
C3214       C  0.53806840  0.85806881  0.40744604    -0.10700
C3215       C  0.56146084  0.87451799  0.44601533     0.05800
H3216       H  0.53808415  0.89774855  0.43591336     0.07700
H3217       H  0.51854268  0.89602379  0.41228683     0.11200
H3218       H  0.53813440  0.84688482  0.39964347     0.11400
H3219       H  0.55803634  0.84877804  0.42314492     0.07700
C3220       C  0.56455133  0.86043085  0.45631227    -0.11400
C3221       C  0.57568583  0.86146796  0.46995264    -0.10700
C3222       C  0.58398689  0.87662893  0.47367199    -0.01600
C3223       C  0.58073993  0.89077777  0.46352017    -0.11800
C3224       C  0.56964804  0.88972426  0.44984504    -0.10200
H3225       H  0.55824874  0.84861591  0.45389840     0.07700
H3226       H  0.57782406  0.85035790  0.47757939     0.11400
H3227       H  0.58703652  0.90259747  0.46593445     0.11100
H3228       H  0.56770324  0.90076237  0.44207086     0.07700
C3229       C  0.54747664  0.86238782  0.59876716    -0.11400
C3230       C  0.54795471  0.87636971  0.58793093     0.05700
C3231       C  0.53649050  0.88962951  0.59032712    -0.10200
C3232       C  0.52489777  0.88897328  0.60333766    -0.11800
C3233       C  0.52440087  0.87495589  0.61407668    -0.01600
C3234       C  0.53572911  0.86163552  0.61163537    -0.10700
C3235       C  0.56034334  0.87707444  0.57416981     0.05800
H3236       H  0.53632978  0.90041908  0.58200867     0.07700
H3237       H  0.51612146  0.89930901  0.60481864     0.11200
H3238       H  0.53563914  0.85073104  0.61980822     0.11400
H3239       H  0.55631291  0.85209351  0.59742164     0.07700
C3240       C  0.56830804  0.89228960  0.57010423    -0.11400
C3241       C  0.58008621  0.89285651  0.55722790    -0.10700
C3242       C  0.58420547  0.87819629  0.54825041    -0.01600
C3243       C  0.57622415  0.86300888  0.55229171    -0.11800
C3244       C  0.56437241  0.86247103  0.56504577    -0.10200
H3245       H  0.56564931  0.90370588  0.57706619     0.07700
H3246       H  0.58614326  0.90470523  0.55447323     0.11400
H3247       H  0.57905782  0.85151706  0.54551579     0.11100
H3248       H  0.55824732  0.85062759  0.56765793     0.07700
C3249       C  0.43960665  0.85625740  0.58999408    -0.11400
C3250       C  0.42916349  0.87010240  0.58631541     0.05700
C3251       C  0.43105888  0.88497193  0.59577637    -0.10200
C3252       C  0.44301627  0.88589495  0.60870119    -0.11800
C3253       C  0.45321545  0.87192286  0.61251279    -0.01600
C3254       C  0.45141054  0.85712806  0.60297164    -0.10700
C3255       C  0.41634932  0.86889895  0.57270146     0.05800
H3256       H  0.42310047  0.89580477  0.59339186     0.07700
H3257       H  0.44409537  0.89744077  0.61587648     0.11200
H3258       H  0.45922924  0.84620428  0.60545075     0.11400
H3259       H  0.43877058  0.84474665  0.58273337     0.07700
C3260       C  0.41299289  0.88265193  0.56203009    -0.11400
C3261       C  0.40126254  0.88125788  0.54895478    -0.10700
C3262       C  0.39278079  0.86603225  0.54617230    -0.01600
C3263       C  0.39596774  0.85236649  0.55695028    -0.11800
C3264       C  0.40753085  0.85381025  0.57010771    -0.10200
H3265       H  0.41969509  0.89438449  0.56354694     0.07700
H3266       H  0.39910414  0.89197664  0.54079528     0.11400
H3267       H  0.38946269  0.84053699  0.55525293     0.11100
H3268       H  0.40951434  0.84309141  0.57830405     0.07700
C3269       C  0.10897410  0.57512564  0.45022699    -0.11400
C3270       C  0.12403353  0.56711831  0.44558639     0.05700
C3271       C  0.13896771  0.57236682  0.45345387    -0.10200
C3272       C  0.13887501  0.58526096  0.46549314    -0.11800
C3273       C  0.12384017  0.59326788  0.47010516    -0.01600
C3274       C  0.10887597  0.58800078  0.46233216    -0.10700
C3275       C  0.12421723  0.55344644  0.43257375     0.05800
H3276       H  0.15077137  0.56635600  0.45046910     0.07700
H3277       H  0.15063194  0.58889272  0.47127029     0.11200
H3278       H  0.09707169  0.59391964  0.46550648     0.11400
H3279       H  0.09725045  0.57163364  0.44430550     0.07700
C3280       C  0.11110708  0.54168114  0.43142295    -0.11400
C3281       C  0.11122905  0.52901216  0.41911610    -0.10700
C3282       C  0.12456472  0.52761673  0.40777328    -0.01600
C3283       C  0.13775883  0.53921083  0.40900018    -0.11800
C3284       C  0.13753145  0.55202316  0.42114220    -0.10200
H3285       H  0.10080249  0.54213524  0.44016334     0.07700
H3286       H  0.10097325  0.52014691  0.41861256     0.11400
H3287       H  0.14814387  0.53855446  0.40035530     0.11100
H3288       H  0.14770946  0.56097568  0.42140210     0.07700
C3289       C  0.11137385  0.55698437  0.59473919    -0.11400
C3290       C  0.12541321  0.55971051  0.58452038     0.05700
C3291       C  0.13973416  0.54957572  0.58713492    -0.10200
C3292       C  0.13993947  0.53700904  0.59945755    -0.11800
C3293       C  0.12574378  0.53404805  0.60929587    -0.01600
C3294       C  0.11149211  0.54422516  0.60685950    -0.10700
C3295       C  0.12499897  0.57272572  0.57094409     0.05800
H3296       H  0.15069873  0.55102112  0.57938309     0.07700
H3297       H  0.15109269  0.52932923  0.60099867     0.11200
H3298       H  0.10042796  0.54239040  0.61440613     0.11400
H3299       H  0.10025836  0.56474227  0.59344662     0.07700
C3300       C  0.11006454  0.57632005  0.56208714    -0.11400
C3301       C  0.10979447  0.58812347  0.54902630    -0.10700
C3302       C  0.12449003  0.59647955  0.54431273    -0.01600
C3303       C  0.13938127  0.59302491  0.55320113    -0.11800
C3304       C  0.13961114  0.58140789  0.56640980    -0.10200
H3305       H  0.09860260  0.56974319  0.56494983     0.07700
H3306       H  0.09811295  0.59049089  0.54242872     0.11400
H3307       H  0.15088354  0.59940782  0.55003437     0.11100
H3308       H  0.15126791  0.57934025  0.57312821     0.07700
C3309       C  0.13717174  0.44151483  0.58719397    -0.11400
C3310       C  0.12224200  0.43247947  0.58465729     0.05700
C3311       C  0.10802991  0.43700666  0.59394890    -0.10200
C3312       C  0.10873063  0.45026960  0.60545692    -0.11800
C3313       C  0.12369675  0.45917081  0.60805663    -0.01600
C3314       C  0.13792717  0.45462209  0.59886422    -0.10700
C3315       C  0.12157803  0.41848949  0.57228301     0.05800
H3316       H  0.09642118  0.43015397  0.59252356     0.07700
H3317       H  0.09760468  0.45336874  0.61253208     0.11200
H3318       H  0.14961149  0.46129314  0.60057587     0.11400
H3319       H  0.14826648  0.43861172  0.58000446     0.07700
C3320       C  0.10719399  0.41577197  0.56232745    -0.11400
C3321       C  0.10706548  0.40316105  0.55004939    -0.10700
C3322       C  0.12139582  0.39324568  0.54736164    -0.01600
C3323       C  0.13555526  0.39562870  0.55760033    -0.11800
C3324       C  0.13559789  0.40799797  0.57000741    -0.10200
H3325       H  0.09621229  0.42369291  0.56366554     0.07700
H3326       H  0.09595680  0.40149715  0.54235161     0.11400
H3327       H  0.14664178  0.38788432  0.55604038     0.11100
H3328       H  0.14668026  0.40936906  0.57778926     0.07700
C3329       C  0.43274969  0.11661451  0.58698464    -0.11400
C3330       C  0.42415980  0.13073405  0.58054928     0.05700
C3331       C  0.42751958  0.14666244  0.58764677    -0.10200
C3332       C  0.43923990  0.14836451  0.60074042    -0.11800
C3333       C  0.44768122  0.13415194  0.60714596    -0.01600
C3334       C  0.44420987  0.11828111  0.60016305    -0.10700
C3335       C  0.41196101  0.12870212  0.56639776     0.05800
H3336       H  0.42099050  0.15780868  0.58322288     0.07700
H3337       H  0.44160069  0.16075814  0.60591731     0.11200
H3338       H  0.45060730  0.10708369  0.60467881     0.11400
H3339       H  0.43089933  0.10421535  0.58164161     0.07700
C3340       C  0.41004070  0.14128064  0.55407150    -0.11400
C3341       C  0.39886899  0.13910811  0.54063154    -0.10700
C3342       C  0.38958119  0.12419415  0.53902571    -0.01600
C3343       C  0.39148669  0.11160080  0.55124393    -0.11800
C3344       C  0.40238464  0.11390188  0.56486026    -0.10200
H3345       H  0.41736493  0.15270702  0.55461143     0.07700
H3346       H  0.39766589  0.14901915  0.53134826     0.11400
H3347       H  0.38427850  0.10009785  0.55046616     0.11100
H3348       H  0.40314617  0.10409780  0.57427758     0.07700
C3349       C  0.57051626  0.11434531  0.57062512    -0.11400
C3350       C  0.56111852  0.12923397  0.57309902     0.05700
C3351       C  0.56476185  0.14331241  0.56304615    -0.10200
C3352       C  0.57747266  0.14265299  0.55112697    -0.11800
C3353       C  0.58676340  0.12780556  0.54860009    -0.01600
C3354       C  0.58310400  0.11360555  0.55842756    -0.10700
C3355       C  0.54752423  0.13021846  0.58593628     0.05800
H3356       H  0.55760483  0.15486842  0.56411956     0.07700
H3357       H  0.57982574  0.15377923  0.54365475     0.11200
H3358       H  0.59009568  0.10199367  0.55682957     0.11400
H3359       H  0.56832979  0.10329621  0.57823871     0.07700
C3360       C  0.53781521  0.11602398  0.58997127    -0.11400
C3361       C  0.52482328  0.11720656  0.60166943    -0.10700
C3362       C  0.52103922  0.13265706  0.60944113    -0.01600
C3363       C  0.53073550  0.14680455  0.60549778    -0.11800
C3364       C  0.54388014  0.14556982  0.59406849    -0.10200
H3365       H  0.53999033  0.10403582  0.58386538     0.07700
H3366       H  0.51757136  0.10606883  0.60443737     0.11400
H3367       H  0.52831936  0.15884762  0.61143723     0.11100
H3368       H  0.55128083  0.15670144  0.59176737     0.07700
C3369       C  0.56521287  0.11158379  0.45893457    -0.11400
C3370       C  0.56164095  0.12623666  0.44959351     0.05700
C3371       C  0.57029191  0.14112643  0.45356784    -0.10200
C3372       C  0.58227519  0.14134544  0.46642069    -0.11800
C3373       C  0.58606470  0.12664219  0.47552400    -0.01600
C3374       C  0.57735006  0.11176653  0.47171146    -0.10700
C3375       C  0.54925932  0.12600859  0.43551193     0.05800
H3376       H  0.56810644  0.15257174  0.44647648     0.07700
H3377       H  0.58883069  0.15299063  0.46898900     0.11200
H3378       H  0.57989051  0.10027158  0.47861893     0.11400
H3379       H  0.55858780  0.09997463  0.45641637     0.07700
C3380       C  0.54796835  0.11194105  0.42481186    -0.11400
C3381       C  0.53678562  0.11204542  0.41119017    -0.10700
C3382       C  0.52677150  0.12627945  0.40786644    -0.01600
C3383       C  0.52794419  0.14027030  0.41862551    -0.11800
C3384       C  0.53896374  0.14009784  0.43233084    -0.10200
H3385       H  0.55586547  0.10097307  0.42672786     0.07700
H3386       H  0.53617575  0.10108391  0.40310324     0.11400
H3387       H  0.52022522  0.15134342  0.41653844     0.11100
H3388       H  0.53935257  0.15101118  0.44048852     0.07700
C3389       C  0.86251204  0.44515358  0.57984581    -0.11400
C3390       C  0.84868184  0.44216802  0.56921827     0.05700
C3391       C  0.83467241  0.45291470  0.57031667    -0.10200
C3392       C  0.83456016  0.46636373  0.58165259    -0.11800
C3393       C  0.84853057  0.46950112  0.59198782    -0.01600
C3394       C  0.86248598  0.45874272  0.59100522    -0.10700
C3395       C  0.84899715  0.42806762  0.55689142     0.05800
H3396       H  0.82390625  0.45116689  0.56217446     0.07700
H3397       H  0.82365093  0.47451022  0.58208922     0.11200
H3398       H  0.87334677  0.46074461  0.59897126     0.11400
H3399       H  0.87335639  0.43692214  0.57963097     0.07700
C3400       C  0.86394178  0.42368770  0.54870444    -0.11400
C3401       C  0.86435399  0.41034064  0.53727641    -0.10700
C3402       C  0.84979275  0.40115796  0.53360265    -0.01600
C3403       C  0.83478328  0.40565115  0.54156457    -0.11800
C3404       C  0.83440502  0.41889858  0.55314488    -0.10200
H3405       H  0.87533395  0.43068355  0.55098689     0.07700
H3406       H  0.87609517  0.40725314  0.53126892     0.11400
H3407       H  0.82337964  0.39872775  0.53908401     0.11100
H3408       H  0.82273187  0.42174535  0.55937890     0.07700
C3409       C  0.83065746  0.69344554  0.42735885    -0.11400
C3410       C  0.84492324  0.70129839  0.42087194     0.05700
C3411       C  0.86067670  0.69740167  0.42788285    -0.10200
C3412       C  0.86217179  0.68513501  0.44049609    -0.11800
C3413       C  0.84791293  0.67669749  0.44638475    -0.01600
C3414       C  0.83212060  0.68132883  0.43995995    -0.10700
C3415       C  0.84334665  0.71203119  0.40568369     0.05800
H3416       H  0.87188076  0.70324198  0.42306213     0.07700
H3417       H  0.87449838  0.68198139  0.44534101     0.11200
H3418       H  0.82085978  0.67524349  0.44432435     0.11400
H3419       H  0.81834496  0.69638100  0.42233406     0.07700
C3420       C  0.83364676  0.70632819  0.39209039    -0.11400
C3421       C  0.83242796  0.71570849  0.37736373    -0.10700
C3422       C  0.84095440  0.73106963  0.37571370    -0.01600
C3423       C  0.85020978  0.73713098  0.38953682    -0.11800
C3424       C  0.85156646  0.72759386  0.40434762    -0.10200
H3425       H  0.82725531  0.69433941  0.39270225     0.07700
H3426       H  0.82481590  0.71080548  0.36719352     0.11400
H3427       H  0.85677092  0.74896090  0.38880336     0.11100
H3428       H  0.85901064  0.73233894  0.41472698     0.07700
C3429       C  0.84057515  0.57686969  0.53035302    -0.11400
C3430       C  0.85366249  0.57633731  0.54224537     0.05700
C3431       C  0.86712568  0.58755450  0.54056836    -0.10200
C3432       C  0.86720391  0.59939825  0.52758585    -0.11800
C3433       C  0.85371847  0.60037645  0.51622277    -0.01600
C3434       C  0.84053539  0.58886095  0.51756266    -0.10700
C3435       C  0.85287345  0.56457187  0.55668027     0.05800
H3436       H  0.87731820  0.58757066  0.54960913     0.07700
H3437       H  0.87748248  0.60820881  0.52682283     0.11200
H3438       H  0.83012203  0.58920998  0.50877223     0.11400
H3439       H  0.83024804  0.56811740  0.53103821     0.07700
C3440       C  0.83752990  0.56156016  0.56464765    -0.11400
C3441       C  0.83664813  0.55054244  0.57824703    -0.10700
C3442       C  0.85111418  0.54238062  0.58428055    -0.01600
C3443       C  0.86650301  0.54549274  0.57644683    -0.11800
C3444       C  0.86736780  0.55644667  0.56275537    -0.10200
H3445       H  0.82619838  0.56790922  0.56051719     0.07700
H3446       H  0.82463745  0.54852385  0.58411268     0.11400
H3447       H  0.87786925  0.53935145  0.58079882     0.11100
H3448       H  0.87934237  0.55838081  0.55679545     0.07700
C3449       C  0.86491045  0.57669476  0.43305222    -0.11400
C3450       C  0.84999865  0.57150235  0.42512104     0.05700
C3451       C  0.83536629  0.58112217  0.42758527    -0.10200
C3452       C  0.83563883  0.59544954  0.43781519    -0.11800
C3453       C  0.85059451  0.60062694  0.44560410    -0.01600
C3454       C  0.86523441  0.59115515  0.44302721    -0.10700
C3455       C  0.84984780  0.55631607  0.41411439     0.05800
H3456       H  0.82371418  0.57771993  0.42147616     0.07700
H3457       H  0.82412999  0.60246871  0.43963461     0.11200
H3458       H  0.87688260  0.59463890  0.44911845     0.11400
H3459       H  0.87633957  0.56943241  0.43182129     0.07700
C3460       C  0.86393670  0.55221095  0.40441206    -0.11400
C3461       C  0.86382951  0.53818489  0.39385339    -0.10700
C3462       C  0.84952396  0.52807495  0.39245023    -0.01600
C3463       C  0.83543874  0.53202584  0.40216196    -0.11800
C3464       C  0.83564348  0.54591888  0.41299163    -0.10200
H3465       H  0.87497526  0.56005870  0.40462223     0.07700
H3466       H  0.87483109  0.53553409  0.38641731     0.11400
H3467       H  0.82428504  0.52434906  0.40142637     0.11100
H3468       H  0.82468871  0.54844743  0.42051880     0.07700
C3469       C  0.70396948  0.89126063  0.59278931    -0.11400
C3470       C  0.69297550  0.87797489  0.58882894     0.05700
C3471       C  0.69420256  0.86294865  0.59811462    -0.10200
C3472       C  0.70666929  0.86081984  0.61027135    -0.11800
C3473       C  0.71808891  0.87374269  0.61370102    -0.01600
C3474       C  0.71639439  0.88917629  0.60522827    -0.10700
C3475       C  0.68078101  0.87913735  0.57459542     0.05800
H3476       H  0.68562896  0.85266450  0.59580439     0.07700
H3477       H  0.70748846  0.84895370  0.61695606     0.11200
H3478       H  0.72504993  0.89933429  0.60776067     0.11400
H3479       H  0.70336069  0.90299408  0.58587664     0.07700
C3480       C  0.67152440  0.89393245  0.57132038    -0.11400
C3481       C  0.65960419  0.89437096  0.55824668    -0.10700
C3482       C  0.65669011  0.88000402  0.54827473    -0.01600
C3483       C  0.66622108  0.86541197  0.55136119    -0.11800
C3484       C  0.67814884  0.86502169  0.56423625    -0.10200
H3485       H  0.67320502  0.90500318  0.57909708     0.07700
H3486       H  0.65241799  0.90580173  0.55618612     0.11400
H3487       H  0.66447358  0.85420986  0.54378297     0.11100
H3488       H  0.68536012  0.85357087  0.56607350     0.07700
C3489       C  0.76697031  0.92991817  0.63424770    -0.11400
C3490       C  0.78099886  0.93122950  0.64494098     0.05700
C3491       C  0.78534153  0.91757649  0.65529138    -0.10200
C3492       C  0.77628553  0.90266722  0.65454176    -0.11800
C3493       C  0.76260264  0.90108177  0.64349708    -0.01600
C3494       C  0.75768530  0.91496238  0.63368456    -0.10700
C3495       C  0.79186993  0.94625335  0.64488682     0.05800
H3496       H  0.79616574  0.91821869  0.66354415     0.07700
H3497       H  0.78018761  0.89220653  0.66240680     0.11200
H3498       H  0.74716740  0.91399105  0.62509528     0.11400
H3499       H  0.76336708  0.94035225  0.62621639     0.07700
C3500       C  0.79844061  0.95241229  0.62979167    -0.11400
C3501       C  0.81086145  0.96480036  0.63004851    -0.10700
C3502       C  0.81681210  0.97127136  0.64541314    -0.01600
C3503       C  0.80959479  0.96564188  0.66042329    -0.11800
C3504       C  0.79729422  0.95324929  0.66015665    -0.10200
H3505       H  0.79454713  0.94707874  0.61787080     0.07700
H3506       H  0.81609379  0.96898149  0.61826780     0.11400
H3507       H  0.81373413  0.97050603  0.67245828     0.11100
H3508       H  0.79231573  0.94876676  0.67194496     0.07700
C3509       C  0.29124617  0.85305271  0.72367644    -0.11400
C3510       C  0.28605489  0.86549276  0.71219063     0.05700
C3511       C  0.29386272  0.88131237  0.71254101    -0.10200
C3512       C  0.30747904  0.88420345  0.72331301    -0.11800
C3513       C  0.31316325  0.87148010  0.73418857    -0.01600
C3514       C  0.30460195  0.85610408  0.73474670    -0.10700
C3515       C  0.27454529  0.86124452  0.69816848     0.05800
H3516       H  0.29021726  0.89098922  0.70362867     0.07700
H3517       H  0.31412843  0.89603923  0.72255994     0.11200
H3518       H  0.30902221  0.84605542  0.74287607     0.11400
H3519       H  0.28548104  0.84072794  0.72350291     0.07700
C3520       C  0.27919294  0.84862693  0.68674746    -0.11400
C3521       C  0.27003240  0.84620482  0.67193932    -0.10700
C3522       C  0.25591303  0.85624584  0.66830281    -0.01600
C3523       C  0.25064130  0.86817311  0.68023928    -0.11800
C3524       C  0.26001353  0.87079645  0.69498054    -0.10200
H3525       H  0.29045211  0.84123568  0.68886973     0.07700
H3526       H  0.27434316  0.83685555  0.66302940     0.11400
H3527       H  0.23992775  0.87621361  0.67769203     0.11100
H3528       H  0.25626618  0.88064318  0.70361514     0.07700
C3529       C  0.40472080  0.86002521  0.72932556    -0.11400
C3530       C  0.40649967  0.87119840  0.71585494     0.05700
C3531       C  0.39323078  0.88211557  0.71173263    -0.10200
C3532       C  0.37833350  0.88167178  0.72078014    -0.11800
C3533       C  0.37623531  0.87016144  0.73404414    -0.01600
C3534       C  0.38986373  0.85961480  0.73843446    -0.10700
C3535       C  0.42207943  0.87132569  0.70596522     0.05800
H3536       H  0.39432463  0.89087825  0.70138066     0.07700
H3537       H  0.36839244  0.89039365  0.71741700     0.11200
H3538       H  0.38950050  0.85131862  0.74913779     0.11400
H3539       H  0.41496977  0.85178763  0.73298923     0.07700
C3540       C  0.42985813  0.88660568  0.70197933    -0.11400
C3541       C  0.44399109  0.88676939  0.69177498    -0.10700
C3542       C  0.45053954  0.87165165  0.68526090    -0.01600
C3543       C  0.44301292  0.85632818  0.68966364    -0.11800
C3544       C  0.42894095  0.85617032  0.69996922    -0.10200
H3545       H  0.42490827  0.89842856  0.70665967     0.07700
H3546       H  0.44957184  0.89877945  0.68871296     0.11400
H3547       H  0.44774576  0.84448284  0.68483142     0.11100
H3548       H  0.42308720  0.84423898  0.70282393     0.07700
C3549       C  0.32409902  0.92117064  0.79191464    -0.11400
C3550       C  0.33794943  0.92973375  0.79879505     0.05700
C3551       C  0.35409965  0.92400257  0.79475659    -0.10200
C3552       C  0.35634987  0.91022188  0.78410607    -0.11800
C3553       C  0.34253073  0.90193664  0.77682825    -0.01600
C3554       C  0.32636400  0.90749689  0.78100491    -0.10700
C3555       C  0.33566242  0.94462781  0.81001918     0.05800
H3556       H  0.36510304  0.93031773  0.79959836     0.07700
H3557       H  0.36902611  0.90610758  0.78165107     0.11200
H3558       H  0.31541542  0.90155817  0.77561174     0.11400
H3559       H  0.31145997  0.92499965  0.79496810     0.07700
C3560       C  0.32230230  0.95601674  0.80746238    -0.11400
C3561       C  0.32022346  0.96999010  0.81800066    -0.10700
C3562       C  0.33163459  0.97306599  0.83111910    -0.01600
C3563       C  0.34507521  0.96184765  0.83359996    -0.11800
C3564       C  0.34697512  0.94772210  0.82329938    -0.10200
H3565       H  0.31353648  0.95427411  0.79718552     0.07700
H3566       H  0.30980301  0.97850314  0.81576757     0.11400
H3567       H  0.35393925  0.96378533  0.84377506     0.11100
H3568       H  0.35720313  0.93910225  0.82593847     0.07700
C3569       C  0.86265881  0.58973389  0.70562220    -0.11400
C3570       C  0.84864578  0.58884913  0.69492735     0.05700
C3571       C  0.83530388  0.60014094  0.69749235    -0.10200
C3572       C  0.83621215  0.61228591  0.71019437    -0.11800
C3573       C  0.85048390  0.61354440  0.72062319    -0.01600
C3574       C  0.86364587  0.60191994  0.71818706    -0.10700
C3575       C  0.84814512  0.57614885  0.68121122     0.05800
H3576       H  0.82434536  0.59991124  0.68941561     0.07700
H3577       H  0.82589505  0.62107157  0.71162176     0.11200
H3578       H  0.87500712  0.60211411  0.72551497     0.11400
H3579       H  0.87298949  0.58095812  0.70430139     0.07700
C3580       C  0.86288178  0.57171903  0.67266471    -0.11400
C3581       C  0.86282799  0.55881773  0.66076202    -0.10700
C3582       C  0.84798321  0.55021629  0.65692215    -0.01600
C3583       C  0.83307422  0.55512975  0.66485421    -0.11800
C3584       C  0.83316540  0.56791179  0.67693919    -0.10200
H3585       H  0.87454209  0.57814553  0.67525791     0.07700
H3586       H  0.87445792  0.55549744  0.65465783     0.11400
H3587       H  0.82141749  0.54874875  0.66210465     0.11100
H3588       H  0.82161496  0.57092110  0.68332519     0.07700
C3589       C  0.89203194  0.65570522  0.79404256    -0.11400
C3590       C  0.90803282  0.64916571  0.79060273     0.05700
C3591       C  0.91082428  0.64124473  0.77512244    -0.10200
C3592       C  0.89784460  0.63961453  0.76343700    -0.11800
C3593       C  0.88164797  0.64561196  0.76705196    -0.01600
C3594       C  0.87894050  0.65387714  0.78240943    -0.10700
C3595       C  0.92175703  0.65033328  0.80317264     0.05800
H3596       H  0.92311627  0.63640452  0.77199786     0.07700
H3597       H  0.90058125  0.63365737  0.75153680     0.11200
H3598       H  0.86662197  0.65846262  0.78572131     0.11400
H3599       H  0.88952246  0.66177779  0.80594922     0.07700
C3600       C  0.92458676  0.66539238  0.81199079    -0.11400
C3601       C  0.93760854  0.66646865  0.82376083    -0.10700
C3602       C  0.94789600  0.65243109  0.82711234    -0.01600
C3603       C  0.94502971  0.63734850  0.81834042    -0.11800
C3604       C  0.93215436  0.63634256  0.80641293    -0.10200
H3605       H  0.91684884  0.67639641  0.80962824     0.07700
H3606       H  0.93949640  0.67823493  0.83039227     0.11400
H3607       H  0.95278880  0.62634494  0.82064447     0.11100
H3608       H  0.93015500  0.62453039  0.79989502     0.07700
C3609       C  0.70288855  0.30461025  0.86615456    -0.11400
C3610       C  0.68730066  0.31078121  0.86058569     0.05700
C3611       C  0.68577362  0.32789965  0.85629139    -0.10200
C3612       C  0.69928417  0.33882456  0.85840075    -0.11800
C3613       C  0.71454364  0.33289423  0.86503731    -0.01600
C3614       C  0.71636792  0.31560610  0.86848840    -0.10700
C3615       C  0.67226176  0.29989752  0.86082776     0.05800
H3616       H  0.67392102  0.33293831  0.85183224     0.07700
H3617       H  0.69743872  0.35209610  0.85578032     0.11200
H3618       H  0.72805390  0.31070848  0.87350414     0.11400
H3619       H  0.70437517  0.29147987  0.86958084     0.07700
C3620       C  0.67242840  0.28357720  0.85393949    -0.11400
C3621       C  0.65802586  0.27352977  0.85440522    -0.10700
C3622       C  0.64329067  0.27960279  0.86189108    -0.01600
C3623       C  0.64338210  0.29575942  0.86916226    -0.11800
C3624       C  0.65763027  0.30579575  0.86854226    -0.10200
H3625       H  0.68358948  0.27874182  0.84794507     0.07700
H3626       H  0.65831691  0.26121326  0.84856058     0.11400
H3627       H  0.63243223  0.30067950  0.87545477     0.11100
H3628       H  0.65728725  0.31814874  0.87433363     0.07700
C3629       C  0.69087596  0.40808252  0.87870885    -0.11400
C3630       C  0.68756285  0.41358377  0.86223412     0.05700
C3631       C  0.69661409  0.40614419  0.84902462    -0.10200
C3632       C  0.70884017  0.39375829  0.85229929    -0.11800
C3633       C  0.71225653  0.38846954  0.86885107    -0.01600
C3634       C  0.70285075  0.39562981  0.88193649    -0.10700
C3635       C  0.67500368  0.42730063  0.85918105     0.05800
H3636       H  0.69427225  0.40989285  0.83614873     0.07700
H3637       H  0.71581164  0.38863850  0.84186715     0.11200
H3638       H  0.70462734  0.39162793  0.89481014     0.11400
H3639       H  0.68441983  0.41361556  0.88928125     0.07700
C3640       C  0.66075261  0.42865189  0.86939904    -0.11400
C3641       C  0.64991471  0.44244428  0.86798545    -0.10700
C3642       C  0.65273740  0.45504724  0.85602232    -0.01600
C3643       C  0.66641492  0.45338014  0.84515037    -0.11800
C3644       C  0.67754090  0.43971136  0.84681203    -0.10200
H3645       H  0.65803864  0.41912808  0.87869872     0.07700
H3646       H  0.63927823  0.44328053  0.87630979     0.11400
H3647       H  0.66886138  0.46297357  0.83582972     0.11100
H3648       H  0.68842809  0.43920782  0.83881509     0.07700
C3649       C  0.77789854  0.34505316  0.92296741    -0.11400
C3650       C  0.77468718  0.35580100  0.93660592     0.05700
C3651       C  0.76094309  0.36684619  0.93558465    -0.10200
C3652       C  0.75124380  0.36790060  0.92093072    -0.11800
C3653       C  0.75515889  0.35805385  0.90670525    -0.01600
C3654       C  0.76819915  0.34610455  0.90827081    -0.10700
C3655       C  0.78620608  0.35632032  0.95138613     0.05800
H3656       H  0.75779736  0.37487354  0.94611818     0.07700
H3657       H  0.74079319  0.37652006  0.92108286     0.11200
H3658       H  0.77127692  0.33794885  0.89781579     0.11400
H3659       H  0.78835079  0.33631795  0.92337805     0.07700
C3660       C  0.79285806  0.34146555  0.95843016    -0.11400
C3661       C  0.80441431  0.34222129  0.97174871    -0.10700
C3662       C  0.80963996  0.35785336  0.97825946    -0.01600
C3663       C  0.80277927  0.37267128  0.97134781    -0.11800
C3664       C  0.79120124  0.37190922  0.95811347    -0.10200
H3665       H  0.78914720  0.32926706  0.95361269     0.07700
H3666       H  0.80941562  0.33055566  0.97679968     0.11400
H3667       H  0.80655928  0.38491893  0.97597873     0.11100
H3668       H  0.78650548  0.38358982  0.95280783     0.07700
C3669       C  0.59030155  0.70766614  0.85404665    -0.11400
C3670       C  0.57820987  0.70729290  0.86673810     0.05700
C3671       C  0.58032824  0.71775301  0.88081278    -0.10200
C3672       C  0.59419097  0.72834275  0.88222367    -0.11800
C3673       C  0.60637372  0.72882465  0.86950647    -0.01600
C3674       C  0.60418238  0.71824434  0.85543999    -0.10700
C3675       C  0.56344084  0.69603451  0.86538063     0.05800
H3676       H  0.57113970  0.71787580  0.89074087     0.07700
H3677       H  0.59512827  0.73583611  0.89345841     0.11200
H3678       H  0.61337893  0.71809639  0.84551248     0.11400
H3679       H  0.58917994  0.69957132  0.84314756     0.07700
C3680       C  0.55499575  0.69393488  0.84996736    -0.11400
C3681       C  0.54093793  0.68353828  0.84879432    -0.10700
C3682       C  0.53499225  0.67504826  0.86302075    -0.01600
C3683       C  0.54348871  0.67709118  0.87840981    -0.11800
C3684       C  0.55755849  0.68742761  0.87956615    -0.10200
H3685       H  0.55909928  0.70054735  0.83885680     0.07700
H3686       H  0.53466160  0.68224351  0.83676423     0.11400
H3687       H  0.53934180  0.67059868  0.88957681     0.11100
H3688       H  0.56394550  0.68854634  0.89155642     0.07700
C3689       C  0.65268939  0.79949027  0.91033049    -0.11400
C3690       C  0.64566782  0.79633116  0.92617174     0.05700
C3691       C  0.63814255  0.78069044  0.92906223    -0.10200
C3692       C  0.63678989  0.76883798  0.91620593    -0.11800
C3693       C  0.64265822  0.77238803  0.89996944    -0.01600
C3694       C  0.65115672  0.78761309  0.89730702    -0.10700
C3695       C  0.64522533  0.80945848  0.93948532     0.05800
H3696       H  0.63302840  0.77773343  0.94126431     0.07700
H3697       H  0.63077152  0.75697143  0.91894563     0.11200
H3698       H  0.65589860  0.79070651  0.88502088     0.11400
H3699       H  0.65864281  0.81144380  0.90780336     0.07700
C3700       C  0.65961874  0.81854419  0.94399322    -0.11400
C3701       C  0.65904459  0.83044296  0.95701697    -0.10700
C3702       C  0.64398447  0.83371924  0.96553046    -0.01600
C3703       C  0.62955665  0.82482878  0.96078051    -0.11800
C3704       C  0.63020349  0.81276048  0.94800559    -0.10200
H3705       H  0.67135591  0.81620820  0.93766341     0.07700
H3706       H  0.67035053  0.83718851  0.96033193     0.11400
H3707       H  0.61778425  0.82706308  0.96708078     0.11100
H3708       H  0.61887392  0.80606008  0.94466876     0.07700
C3709       C  0.80175492  0.79025887  0.61523890    -0.11400
C3710       C  0.79803020  0.79590864  0.63151722     0.05700
C3711       C  0.80604301  0.78812764  0.64526713    -0.10200
C3712       C  0.81782535  0.77527710  0.64272961    -0.11800
C3713       C  0.82190323  0.76998459  0.62639269    -0.01600
C3714       C  0.81359926  0.77755416  0.61269839    -0.10700
C3715       C  0.78633838  0.81031477  0.63395419     0.05800
H3716       H  0.80349325  0.79222522  0.65796974     0.07700
H3717       H  0.82363508  0.76947858  0.65361026     0.11200
H3718       H  0.81647864  0.77396872  0.59992868     0.11400
H3719       H  0.79558293  0.79576911  0.60438919     0.07700
C3720       C  0.78666167  0.82405938  0.62288181    -0.11400
C3721       C  0.77576862  0.83765400  0.62495999    -0.10700
C3722       C  0.76440794  0.83816306  0.63836514    -0.01600
C3723       C  0.76401188  0.82427895  0.64943347    -0.11800
C3724       C  0.77486353  0.81054618  0.64723276    -0.10200
H3725       H  0.79553165  0.82444368  0.61267954     0.07700
H3726       H  0.77639118  0.84803300  0.61615934     0.11400
H3727       H  0.75539466  0.82366576  0.65974806     0.11100
H3728       H  0.77413597  0.80000729  0.65582571     0.07700
C3729       C  0.83598374  0.69868193  0.71473920    -0.11400
C3730       C  0.84981598  0.70288461  0.70478367     0.05700
C3731       C  0.86508852  0.69442225  0.70741005    -0.10200
C3732       C  0.86605351  0.68088831  0.71857025    -0.11800
C3733       C  0.85186377  0.67583679  0.72747891    -0.01600
C3734       C  0.83703721  0.68525618  0.72610630    -0.10700
C3735       C  0.84767317  0.71350443  0.68965163     0.05800
H3736       H  0.87584425  0.69725491  0.69972294     0.07700
H3737       H  0.87749574  0.67352143  0.71927856     0.11200
H3738       H  0.82590914  0.68131265  0.73269527     0.11400
H3739       H  0.82408083  0.70503321  0.71287596     0.07700
C3740       C  0.83519965  0.70932839  0.67786117    -0.11400
C3741       C  0.83507530  0.71670226  0.66196509    -0.10700
C3742       C  0.84722844  0.72861002  0.65769333    -0.01600
C3743       C  0.85902950  0.73366294  0.66979843    -0.11800
C3744       C  0.85939976  0.72598463  0.68562468    -0.10200
H3745       H  0.82617532  0.69957575  0.68057141     0.07700
H3746       H  0.82577351  0.71276362  0.65282199     0.11400
H3747       H  0.86851336  0.74283382  0.66668814     0.11100
H3748       H  0.86918165  0.72931574  0.69449713     0.07700
C3749       C  0.85243926  0.69548300  0.57950118    -0.11400
C3750       C  0.85116296  0.70350373  0.56391860     0.05700
C3751       C  0.84929764  0.72102572  0.56321660    -0.10200
C3752       C  0.84867827  0.73044554  0.57804198    -0.11800
C3753       C  0.84951985  0.72249706  0.59387355    -0.01600
C3754       C  0.85163034  0.70482861  0.59433376    -0.10700
C3755       C  0.85145717  0.69342241  0.54845400     0.05800
H3756       H  0.84841191  0.72739033  0.55120981     0.07700
H3757       H  0.84750145  0.74402143  0.57717364     0.11200
H3758       H  0.85308867  0.69799296  0.60593307     0.11400
H3759       H  0.85401120  0.68192789  0.58017009     0.07700
C3760       C  0.86658329  0.68682636  0.54247656    -0.11400
C3761       C  0.86668159  0.67643271  0.52829804    -0.10700
C3762       C  0.85160151  0.67232386  0.52005885    -0.01600
C3763       C  0.83648991  0.67909565  0.52608240    -0.11800
C3764       C  0.83644316  0.68963537  0.54012872    -0.10200
H3765       H  0.87825846  0.68959881  0.54889023     0.07700
H3766       H  0.87850291  0.67132772  0.52401869     0.11400
H3767       H  0.82467543  0.67613154  0.52003787     0.11100
H3768       H  0.82466531  0.69455859  0.54473314     0.07700
C3769       C  0.90864983  0.77449780  0.62411576    -0.11400
C3770       C  0.90576907  0.78979799  0.63241491     0.05700
C3771       C  0.88987556  0.79319760  0.63899086    -0.10200
C3772       C  0.87683178  0.78172169  0.63668699    -0.11800
C3773       C  0.87955552  0.76648556  0.62804921    -0.01600
C3774       C  0.89574463  0.76287291  0.62212056    -0.10700
C3775       C  0.91922152  0.80240044  0.63364092     0.05800
H3776       H  0.88741553  0.80500470  0.64536955     0.07700
H3777       H  0.86453443  0.78513713  0.64118230     0.11200
H3778       H  0.89850497  0.75109666  0.61585079     0.11400
H3779       H  0.92092023  0.77156240  0.61916604     0.07700
C3780       C  0.92412941  0.80890769  0.64928106    -0.11400
C3781       C  0.93718557  0.82052627  0.65036457    -0.10700
C3782       C  0.94536490  0.82601080  0.63578386    -0.01600
C3783       C  0.94017644  0.81968564  0.62010877    -0.11800
C3784       C  0.92730186  0.80789192  0.61907037    -0.10200
H3785       H  0.91803903  0.80478130  0.66065759     0.07700
H3786       H  0.94084885  0.82523169  0.66261347     0.11400
H3787       H  0.94616839  0.82371769  0.60865010     0.11100
H3788       H  0.92355455  0.80311062  0.60686927     0.07700
C3789       C  0.76721140  0.82306287  0.34653496    -0.11400
C3790       C  0.77681336  0.81610267  0.35970395     0.05700
C3791       C  0.77411122  0.82178760  0.37615208    -0.10200
C3792       C  0.76192107  0.83402500  0.37941543    -0.11800
C3793       C  0.75220903  0.84093688  0.36628165    -0.01600
C3794       C  0.75508144  0.83541249  0.34978248    -0.10700
C3795       C  0.78931992  0.80264573  0.35638282     0.05800
H3796       H  0.78125334  0.81654995  0.38653888     0.07700
H3797       H  0.76022804  0.83818074  0.39224254     0.11200
H3798       H  0.74772023  0.84033840  0.33940919     0.11400
H3799       H  0.76912068  0.81895462  0.33371537     0.07700
C3800       C  0.78510715  0.78890166  0.34614766    -0.11400
C3801       C  0.79671715  0.77604707  0.34317900    -0.10700
C3802       C  0.81300561  0.77677564  0.35007148    -0.01600
C3803       C  0.81716650  0.79053896  0.36040218    -0.11800
C3804       C  0.80540557  0.80326575  0.36362316    -0.10200
H3805       H  0.77269474  0.78795226  0.34066544     0.07700
H3806       H  0.79279410  0.76548681  0.33553712     0.11400
H3807       H  0.82960982  0.79178880  0.36568278     0.11100
H3808       H  0.80899547  0.81380265  0.37149230     0.07700
C3809       C  0.68448006  0.85577484  0.32067797    -0.11400
C3810       C  0.68913796  0.86673670  0.30769074     0.05700
C3811       C  0.70324947  0.87703636  0.31002587    -0.10200
C3812       C  0.71230013  0.87657693  0.32518486    -0.11800
C3813       C  0.70718570  0.86605760  0.33834569    -0.01600
C3814       C  0.69335599  0.85548595  0.33583517    -0.10700
C3815       C  0.67840432  0.86815855  0.29242570     0.05800
H3816       H  0.70711988  0.88559058  0.30022060     0.07700
H3817       H  0.72285533  0.88493862  0.32686736     0.11200
H3818       H  0.68923586  0.84715433  0.34572790     0.11400
H3819       H  0.67353677  0.84786590  0.31937072     0.07700
C3820       C  0.67154289  0.85363866  0.28498111    -0.11400
C3821       C  0.65896309  0.85500475  0.27274890    -0.10700
C3822       C  0.65309106  0.87088488  0.26773311    -0.01600
C3823       C  0.66062332  0.88541629  0.27429551    -0.11800
C3824       C  0.67328850  0.88407411  0.28647870    -0.10200
H3825       H  0.67533352  0.84122336  0.28923275     0.07700
H3826       H  0.65300837  0.84368668  0.26805156     0.11400
H3827       H  0.65590490  0.89777064  0.27083509     0.11100
H3828       H  0.67818700  0.89547181  0.29211381     0.07700
C3829       C  0.68416325  0.88394217  0.41658483    -0.11400
C3830       C  0.68758507  0.87430666  0.43098137     0.05700
C3831       C  0.70101581  0.86282578  0.43070458    -0.10200
C3832       C  0.71061681  0.86073257  0.41625496    -0.11800
C3833       C  0.70698136  0.87005087  0.40159952    -0.01600
C3834       C  0.69381505  0.88193359  0.40215613    -0.10700
C3835       C  0.67683838  0.87572895  0.44604151     0.05800
H3836       H  0.70420991  0.85552524  0.44177211     0.07700
H3837       H  0.72102969  0.85206987  0.41697880     0.11200
H3838       H  0.69091663  0.88964678  0.39129000     0.11400
H3839       H  0.67383278  0.89283111  0.41636804     0.07700
C3840       C  0.67099459  0.89147675  0.45171511    -0.11400
C3841       C  0.66027342  0.89251966  0.46552191    -0.10700
C3842       C  0.65515695  0.87781841  0.47383534    -0.01600
C3843       C  0.66127060  0.86214749  0.46830358    -0.11800
C3844       C  0.67196265  0.86111983  0.45459492    -0.10200
H3845       H  0.67470074  0.90296851  0.44546348     0.07700
H3846       H  0.65578480  0.90477738  0.46949798     0.11400
H3847       H  0.65756121  0.85056461  0.47438583     0.11100
H3848       H  0.67605852  0.84879816  0.45039902     0.07700
C3849       C  0.75624243  0.92781328  0.36544487    -0.11400
C3850       C  0.77182902  0.92416923  0.35822347     0.05700
C3851       C  0.77543626  0.90751181  0.35340103    -0.10200
C3852       C  0.76388296  0.89465025  0.35629024    -0.11800
C3853       C  0.74850224  0.89824140  0.36398524    -0.01600
C3854       C  0.74469421  0.91500167  0.36826668    -0.10700
C3855       C  0.78462465  0.93754201  0.35673456     0.05800
H3856       H  0.78744688  0.90433885  0.34799522     0.07700
H3857       H  0.76727605  0.88182293  0.35309581     0.11200
H3858       H  0.73281833  0.91820746  0.37393439     0.11400
H3859       H  0.75306118  0.94058664  0.36906487     0.07700
C3860       C  0.79402165  0.93940700  0.34200667    -0.11400
C3861       C  0.80640223  0.95180398  0.34100338    -0.10700
C3862       C  0.80978639  0.96231743  0.35482765    -0.01600
C3863       C  0.80031895  0.96046257  0.36948718    -0.11800
C3864       C  0.78780797  0.94829901  0.37038701    -0.10200
H3865       H  0.79175369  0.93130552  0.33128590     0.07700
H3866       H  0.81357976  0.95290513  0.32957681     0.11400
H3867       H  0.80263068  0.96839498  0.38032472     0.11100
H3868       H  0.78088098  0.94701518  0.38195151     0.07700
C3869       C  0.64763177  0.82739550  0.80654590    -0.11400
C3870       C  0.64682503  0.81025464  0.80193566     0.05700
C3871       C  0.64446150  0.80633382  0.78479082    -0.10200
C3872       C  0.64129805  0.81903361  0.77298220    -0.11800
C3873       C  0.64105671  0.83598462  0.77788874    -0.01600
C3874       C  0.64494807  0.84011534  0.79459397    -0.10700
C3875       C  0.64656431  0.79665124  0.81501405     0.05800
H3876       H  0.64442184  0.79338702  0.78052323     0.07700
H3877       H  0.63856306  0.81560515  0.76008389     0.11200
H3878       H  0.64477826  0.85315410  0.79863720     0.11400
H3879       H  0.64930859  0.83105323  0.81953727     0.07700
C3880       C  0.65496874  0.79834221  0.83056503    -0.11400
C3881       C  0.65292469  0.78633984  0.84336196    -0.10700
C3882       C  0.64250140  0.77229102  0.84092766    -0.01600
C3883       C  0.63495192  0.77015901  0.82504042    -0.11800
C3884       C  0.63674550  0.78220155  0.81243745    -0.10200
H3885       H  0.66292808  0.80907768  0.83299737     0.07700
H3886       H  0.65910269  0.78843715  0.85528559     0.11400
H3887       H  0.62732621  0.75927197  0.82227264     0.11100
H3888       H  0.62981783  0.78037294  0.80086093     0.07700
C3889       C  0.67120192  0.88615789  0.71007011    -0.11400
C3890       C  0.68418537  0.87416600  0.70945147     0.05700
C3891       C  0.68442641  0.86101111  0.72135051    -0.10200
C3892       C  0.67174726  0.85964104  0.73327539    -0.11800
C3893       C  0.65848506  0.87121216  0.73331631    -0.01600
C3894       C  0.65842267  0.88462340  0.72182495    -0.10700
C3895       C  0.69703025  0.87487113  0.69605628     0.05800
H3896       H  0.69406299  0.85137795  0.72105118     0.07700
H3897       H  0.67183105  0.84907417  0.74188402     0.11200
H3898       H  0.64825592  0.89371422  0.72173887     0.11400
H3899       H  0.67078614  0.89659292  0.70132189     0.07700
C3900       C  0.69265835  0.87950690  0.67950051    -0.11400
C3901       C  0.70447595  0.87859428  0.66663420    -0.10700
C3902       C  0.72076451  0.87284664  0.67008067    -0.01600
C3903       C  0.72533832  0.86895306  0.68668301    -0.11800
C3904       C  0.71363414  0.87003288  0.69953908    -0.10200
H3905       H  0.67993964  0.88313669  0.67633295     0.07700
H3906       H  0.70066435  0.88154878  0.65388200     0.11400
H3907       H  0.73794610  0.86478553  0.68967008     0.11100
H3908       H  0.71753858  0.86681488  0.71218985     0.07700
C3909       C  0.57800655  0.88238626  0.72323618    -0.11400
C3910       C  0.56642112  0.86913998  0.72283377     0.05700
C3911       C  0.56999571  0.85456433  0.73236224    -0.10200
C3912       C  0.58507602  0.85296493  0.74135409    -0.11800
C3913       C  0.59690344  0.86604821  0.74125893    -0.01600
C3914       C  0.59287993  0.88090895  0.73240499    -0.10700
C3915       C  0.55135142  0.87011951  0.71161242     0.05800
H3916       H  0.56120911  0.84424152  0.73277283     0.07700
H3917       H  0.58730494  0.84138880  0.74811069     0.11200
H3918       H  0.60163613  0.89128731  0.73213444     0.11400
H3919       H  0.57597836  0.89371479  0.71593327     0.07700
C3920       C  0.54356604  0.88567806  0.70780726    -0.11400
C3921       C  0.53051703  0.88663412  0.69595674    -0.10700
C3922       C  0.52477993  0.87202564  0.68783213    -0.01600
C3923       C  0.53212866  0.85645211  0.69208145    -0.11800
C3924       C  0.54527013  0.85552220  0.70368716    -0.10200
H3925       H  0.54760119  0.89717865  0.71388297     0.07700
H3926       H  0.52501419  0.89880489  0.69308025     0.11400
H3927       H  0.52804321  0.84492249  0.68607121     0.11100
H3928       H  0.55104133  0.84335687  0.70591976     0.07700
C3929       C  0.63435370  0.94821644  0.81389385    -0.11400
C3930       C  0.64744583  0.93650149  0.81208160     0.05700
C3931       C  0.66299106  0.93983753  0.81977766    -0.10200
C3932       C  0.66513576  0.95432119  0.82965195    -0.11800
C3933       C  0.65174968  0.96563140  0.83197090    -0.01600
C3934       C  0.63645805  0.96255237  0.82374512    -0.10700
C3935       C  0.64450716  0.92079044  0.80241842     0.05800
H3936       H  0.67328799  0.93099911  0.81859768     0.07700
H3937       H  0.67703724  0.95636491  0.83591125     0.11200
H3938       H  0.62596880  0.97113775  0.82510811     0.11400
H3939       H  0.62237423  0.94622700  0.80776395     0.07700
C3940       C  0.62927014  0.91220538  0.80411063    -0.11400
C3941       C  0.62558343  0.89839281  0.79395607    -0.10700
C3942       C  0.63706900  0.89278749  0.78191178    -0.01600
C3943       C  0.65267899  0.90075394  0.78076881    -0.11800
C3944       C  0.65637209  0.91468242  0.79094154    -0.10200
H3945       H  0.62005846  0.91634699  0.81315089     0.07700
H3946       H  0.61360087  0.89224222  0.79534165     0.11400
H3947       H  0.66169393  0.89673428  0.77148319     0.11100
H3948       H  0.66818738  0.92109055  0.78934058     0.07700
C3949       C  0.79622178  0.35905566  0.79056776    -0.11400
C3950       C  0.78915963  0.37271026  0.79932162     0.05700
C3951       C  0.79259300  0.38914451  0.79387876    -0.10200
C3952       C  0.80332995  0.39193640  0.78043430    -0.11800
C3953       C  0.81093740  0.37834943  0.77200718    -0.01600
C3954       C  0.80705606  0.36185279  0.77707733    -0.10700
C3955       C  0.77899660  0.37005364  0.81464927     0.05800
H3956       H  0.78718401  0.39990863  0.80025704     0.07700
H3957       H  0.80617376  0.40483100  0.77715527     0.11200
H3958       H  0.81250472  0.35109257  0.77076089     0.11400
H3959       H  0.79381805  0.34624476  0.79451879     0.07700
C3960       C  0.76631072  0.35783249  0.81515038    -0.11400
C3961       C  0.75667756  0.35574751  0.82966398    -0.10700
C3962       C  0.75984505  0.36557469  0.84399905    -0.01600
C3963       C  0.77261582  0.37764588  0.84352986    -0.11800
C3964       C  0.78200585  0.37992918  0.82900618    -0.10200
H3965       H  0.76371132  0.35007443  0.80425582     0.07700
H3966       H  0.74698471  0.34625602  0.82981425     0.11400
H3967       H  0.77526349  0.38542062  0.85440676     0.11100
H3968       H  0.79181922  0.38929852  0.82907614     0.07700
C3969       C  0.83459074  0.32207921  0.72384013    -0.11400
C3970       C  0.84606264  0.32100330  0.71058846     0.05700
C3971       C  0.85692365  0.33445544  0.70761467    -0.10200
C3972       C  0.85577172  0.34914178  0.71709339    -0.11800
C3973       C  0.84364583  0.35073448  0.72967644    -0.01600
C3974       C  0.83338082  0.33693078  0.73336785    -0.10700
C3975       C  0.84636004  0.30646343  0.69905352     0.05800
H3976       H  0.86603384  0.33372978  0.69762425     0.07700
H3977       H  0.86405473  0.35950822  0.71425039     0.11200
H3978       H  0.82393679  0.33793426  0.74300161     0.11400
H3979       H  0.82614401  0.31175646  0.72630919     0.07700
C3980       C  0.85114763  0.29042075  0.70472135    -0.11400
C3981       C  0.85405185  0.27745012  0.69315429    -0.10700
C3982       C  0.85199824  0.28033134  0.67580763    -0.01600
C3983       C  0.84620672  0.29611595  0.67033088    -0.11800
C3984       C  0.84353780  0.30910115  0.68183761    -0.10200
H3985       H  0.85345408  0.28819409  0.71795862     0.07700
H3986       H  0.85839802  0.26532792  0.69771253     0.11400
H3987       H  0.84474397  0.29877949  0.65709070     0.11100
H3988       H  0.83986519  0.32144093  0.67725546     0.07700
C3989       C  0.83014185  0.43955042  0.71493297    -0.11400
C3990       C  0.84405051  0.44062401  0.70430649     0.05700
C3991       C  0.85678647  0.42846127  0.70577542    -0.10200
C3992       C  0.85530187  0.41517117  0.71713000    -0.11800
C3993       C  0.84101238  0.41355896  0.72727692    -0.01600
C3994       C  0.82860828  0.42621488  0.72626838    -0.10700
C3995       C  0.84478590  0.45376883  0.69107138     0.05800
H3996       H  0.86762682  0.42883628  0.69770610     0.07700
H3997       H  0.86517889  0.40577461  0.71767959     0.11200
H3998       H  0.81755325  0.42600174  0.73391618     0.11400
H3999       H  0.82030028  0.44897363  0.71435587     0.07700
C4000       C  0.83030351  0.45804877  0.68185335    -0.11400
C4001       C  0.83100974  0.46970546  0.66876630    -0.10700
C4002       C  0.84623712  0.47729439  0.66451872    -0.01600
C4003       C  0.86071072  0.47320178  0.67384942    -0.11800
C4004       C  0.85998661  0.46157819  0.68701306    -0.10200
H4005       H  0.81846776  0.45203367  0.68445142     0.07700
H4006       H  0.81966418  0.47251919  0.66176039     0.11400
H4007       H  0.87261898  0.47892911  0.67094256     0.11100
H4008       H  0.87132173  0.45868859  0.69400403     0.07700
C4009       C  0.88328907  0.36046552  0.79205820    -0.11400
C4010       C  0.89127938  0.37421294  0.79984673     0.05700
C4011       C  0.88681171  0.39058935  0.79476374    -0.10200
C4012       C  0.87466864  0.39320755  0.78238701    -0.11800
C4013       C  0.86684516  0.37952761  0.77436647    -0.01600
C4014       C  0.87126094  0.36309537  0.77940091    -0.10700
C4015       C  0.90449483  0.37174086  0.81293973     0.05800
H4016       H  0.89287488  0.40150806  0.80017314     0.07700
H4017       H  0.87139840  0.40606920  0.77923560     0.11200
H4018       H  0.86569522  0.35222015  0.77341445     0.11400
H4019       H  0.88628892  0.34767014  0.79575047     0.07700
C4020       C  0.90625363  0.38344202  0.82612622    -0.11400
C4021       C  0.91959942  0.38223618  0.83747162    -0.10700
C4022       C  0.93125203  0.36903880  0.83622275    -0.01600
C4023       C  0.92916265  0.35685737  0.82359390    -0.11800
C4024       C  0.91599695  0.35827612  0.81195315    -0.10200
H4025       H  0.89737196  0.39366744  0.82764115     0.07700
H4026       H  0.92075514  0.39159272  0.84732047     0.11400
H4027       H  0.93801632  0.34654934  0.82240481     0.11100
H4028       H  0.91516626  0.34912937  0.80189619     0.07700
C4029       C  0.78074613  0.65013827  0.81697596    -0.11400
C4030       C  0.79129094  0.63715145  0.81123066     0.05700
C4031       C  0.78982014  0.62100987  0.81830544    -0.10200
C4032       C  0.77790175  0.61784490  0.83064764    -0.11800
C4033       C  0.76734245  0.63080311  0.83636699    -0.01600
C4034       C  0.76898890  0.64702652  0.82956719    -0.10700
C4035       C  0.80356409  0.64017251  0.79764305     0.05800
H4036       H  0.79766282  0.61072503  0.81401198     0.07700
H4037       H  0.77694789  0.60524285  0.83575829     0.11200
H4038       H  0.76088335  0.65718250  0.83366711     0.11400
H4039       H  0.78165655  0.66269878  0.81176487     0.07700
C4040       C  0.79873595  0.64856265  0.78279498    -0.11400
C4041       C  0.80989466  0.64991160  0.76936319    -0.10700
C4042       C  0.82609033  0.64315745  0.77072906    -0.01600
C4043       C  0.83116093  0.63537980  0.78573097    -0.11800
C4044       C  0.81998065  0.63382683  0.79905183    -0.10200
H4045       H  0.78612115  0.65343327  0.78132518     0.07700
H4046       H  0.80576105  0.65576948  0.75775875     0.11400
H4047       H  0.84360033  0.62997358  0.78688911     0.11100
H4048       H  0.82407118  0.62742658  0.81038150     0.07700
C4049       C  0.70373943  0.68026977  0.85119851    -0.11400
C4050       C  0.70605698  0.69039949  0.86550007     0.05700
C4051       C  0.71775786  0.68535236  0.87780204    -0.10200
C4052       C  0.72668144  0.67022906  0.87599202    -0.11800
C4053       C  0.72367348  0.65975471  0.86210002    -0.01600
C4054       C  0.71233186  0.66497906  0.84961221    -0.10700
C4055       C  0.69484286  0.70504697  0.86830688     0.05800
H4056       H  0.71966837  0.69291082  0.88897807     0.07700
H4057       H  0.73527831  0.66628638  0.88583708     0.11200
H4058       H  0.70982905  0.65700550  0.83884359     0.11400
H4059       H  0.69461331  0.68375974  0.84167354     0.07700
C4060       C  0.69186887  0.71692806  0.85550882    -0.11400
C4061       C  0.67898869  0.72887596  0.85706145    -0.10700
C4062       C  0.66876399  0.72885578  0.87128359    -0.01600
C4063       C  0.67235008  0.71764491  0.88446893    -0.11800
C4064       C  0.68538706  0.70594471  0.88307106    -0.10200
H4065       H  0.69901121  0.71644457  0.84401128     0.07700
H4066       H  0.67621127  0.73725723  0.84666429     0.11400
H4067       H  0.66441212  0.71731364  0.89543539     0.11100
H4068       H  0.68729057  0.69681084  0.89301668     0.07700
C4069       C  0.71204184  0.56848245  0.85244859    -0.11400
C4070       C  0.69744333  0.56898431  0.86214015     0.05700
C4071       C  0.69460134  0.58300686  0.87251687    -0.10200
C4072       C  0.70582339  0.59645956  0.87273144    -0.11800
C4073       C  0.71997071  0.59649419  0.86225993    -0.01600
C4074       C  0.72319902  0.58199719  0.85254145    -0.10700
C4075       C  0.68503495  0.55513124  0.86109273     0.05800
H4076       H  0.68347768  0.58378464  0.88017177     0.07700
H4077       H  0.70320682  0.60711755  0.88081715     0.11200
H4078       H  0.73434826  0.58075357  0.84509091     0.11400
H4079       H  0.71485972  0.55757487  0.84477272     0.07700
C4080       C  0.68083946  0.54795198  0.84547777    -0.11400
C4081       C  0.66860981  0.53545620  0.84431077    -0.10700
C4082       C  0.66036319  0.52979156  0.85875083    -0.01600
C4083       C  0.66478779  0.53673811  0.87441180    -0.11800
C4084       C  0.67694734  0.54930289  0.87556226    -0.10200
H4085       H  0.68670467  0.55232061  0.83407614     0.07700
H4086       H  0.66546495  0.53039152  0.83206223     0.11400
H4087       H  0.65864689  0.53267670  0.88577955     0.11100
H4088       H  0.68003620  0.55445246  0.88778891     0.07700
C4089       C  0.80235251  0.65657242  0.93917837    -0.11400
C4090       C  0.79465220  0.64093342  0.93633116     0.05700
C4091       C  0.79827125  0.62745583  0.94718927    -0.10200
C4092       C  0.80953979  0.62947384  0.96049844    -0.11800
C4093       C  0.81728774  0.64508174  0.96337967    -0.01600
C4094       C  0.81347952  0.65867264  0.95268241    -0.10700
C4095       C  0.78311010  0.63843808  0.92191574     0.05800
H4096       H  0.79263532  0.61522847  0.94516043     0.07700
H4097       H  0.81221207  0.61876798  0.96853010     0.11200
H4098       H  0.81932846  0.67081687  0.95456493     0.11400
H4099       H  0.79968860  0.66717105  0.93100495     0.07700
C4100       C  0.76788397  0.62999716  0.92411730    -0.11400
C4101       C  0.75737715  0.62678966  0.91040276    -0.10700
C4102       C  0.76194797  0.63181248  0.89414559    -0.01600
C4103       C  0.77709491  0.64046600  0.89199804    -0.11800
C4104       C  0.78753551  0.64381860  0.90576455    -0.10200
H4105       H  0.76410081  0.62590332  0.93648775     0.07700
H4106       H  0.74563907  0.62042955  0.91257896     0.11400
H4107       H  0.78115860  0.64424006  0.87963385     0.11100
H4108       H  0.79932114  0.65015742  0.90371873     0.07700
C4109       C  0.33323938  0.80602402  0.83033407    -0.11400
C4110       C  0.33791516  0.80421221  0.81343403     0.05700
C4111       C  0.34672460  0.78960218  0.80861866    -0.10200
C4112       C  0.35168285  0.77768637  0.82055744    -0.11800
C4113       C  0.34799057  0.78011034  0.83757537    -0.01600
C4114       C  0.33826602  0.79410869  0.84229456    -0.10700
C4115       C  0.33556918  0.81827189  0.80128064     0.05800
H4116       H  0.35068324  0.78779522  0.79577421     0.07700
H4117       H  0.35885356  0.76681217  0.81653336     0.11200
H4118       H  0.33523952  0.79633494  0.85533987     0.11400
H4119       H  0.32620560  0.81695849  0.83442784     0.07700
C4120       C  0.33304273  0.81497330  0.78407835    -0.11400
C4121       C  0.33443065  0.82789706  0.77227940    -0.10700
C4122       C  0.33790832  0.84437256  0.77751705    -0.01600
C4123       C  0.33909113  0.84802140  0.79466829    -0.11800
C4124       C  0.33803709  0.83506233  0.80647683    -0.10200
H4125       H  0.33075130  0.80227872  0.77966769     0.07700
H4126       H  0.33344921  0.82494934  0.75902313     0.11400
H4127       H  0.34195932  0.86068879  0.79884415     0.11100
H4128       H  0.34028722  0.83807723  0.81955516     0.07700
C4129       C  0.30297162  0.72819135  0.85691438    -0.11400
C4130       C  0.30287552  0.71299460  0.86592298     0.05700
C4131       C  0.31681164  0.70864224  0.87589121    -0.10200
C4132       C  0.33071687  0.71916396  0.87665010    -0.11800
C4133       C  0.33095470  0.73421817  0.86742408    -0.01600
C4134       C  0.31693121  0.73872184  0.85764254    -0.10700
C4135       C  0.28822950  0.70172611  0.86526511     0.05800
H4136       H  0.31687750  0.69714090  0.88321064     0.07700
H4137       H  0.34128787  0.71554066  0.88446913     0.11200
H4138       H  0.31693329  0.75013568  0.85019698     0.11400
H4139       H  0.29238236  0.73174347  0.84908702     0.07700
C4140       C  0.27203743  0.70813230  0.86787561    -0.11400
C4141       C  0.25847613  0.69717052  0.86923759    -0.10700
C4142       C  0.26089713  0.67970825  0.86769829    -0.01600
C4143       C  0.27691991  0.67339994  0.86426898    -0.11800
C4144       C  0.29050044  0.68430247  0.86313064    -0.10200
H4145       H  0.27001028  0.72152192  0.86962738     0.07700
H4146       H  0.24617132  0.70226160  0.87189917     0.11400
H4147       H  0.27912721  0.65999371  0.86341463     0.11100
H4148       H  0.30286649  0.67909619  0.86099991     0.07700
C4149       C  0.41742620  0.73124924  0.85044452    -0.11400
C4150       C  0.42198956  0.72142156  0.86446747     0.05700
C4151       C  0.41229294  0.72288278  0.87907500    -0.10200
C4152       C  0.39806808  0.73324359  0.87936537    -0.11800
C4153       C  0.39297870  0.74244243  0.86507356    -0.01600
C4154       C  0.40312174  0.74150932  0.85067857    -0.10700
C4155       C  0.43606347  0.70892768  0.86350307     0.05800
H4156       H  0.41516966  0.71540474  0.89009145     0.07700
H4157       H  0.39052162  0.73347737  0.89060768     0.11200
H4158       H  0.39992199  0.74801896  0.83922305     0.11400
H4159       H  0.42474156  0.73080219  0.83906776     0.07700
C4160       C  0.43938795  0.70035422  0.84838522    -0.11400
C4161       C  0.45177607  0.68786511  0.84763733    -0.10700
C4162       C  0.46102146  0.68336225  0.86203515    -0.01600
C4163       C  0.45799904  0.69208582  0.87708885    -0.11800
C4164       C  0.44576448  0.70479284  0.87778640    -0.10200
H4165       H  0.43203995  0.70283981  0.83717883     0.07700
H4166       H  0.45372912  0.68134015  0.83585914     0.11400
H4167       H  0.46503740  0.68903222  0.88837014     0.11100
H4168       H  0.44386957  0.71130377  0.88957021     0.07700
C4169       C  0.35810937  0.80617125  0.91208031    -0.11400
C4170       C  0.34169108  0.80592728  0.91834300     0.05700
C4171       C  0.33036048  0.79406173  0.91187411    -0.10200
C4172       C  0.33547688  0.78240553  0.89974349    -0.11800
C4173       C  0.35200766  0.78239626  0.89380576    -0.01600
C4174       C  0.36322103  0.79451550  0.89998394    -0.10700
C4175       C  0.33677912  0.81743010  0.93219737     0.05800
H4176       H  0.31769615  0.79343680  0.91657812     0.07700
H4177       H  0.32658184  0.77311653  0.89535446     0.11200
H4178       H  0.37590968  0.79510932  0.89534691     0.11400
H4179       H  0.36703648  0.81539424  0.91656659     0.07700
C4180       C  0.34802572  0.82039015  0.94549083    -0.11400
C4181       C  0.34379047  0.83127629  0.95852041    -0.10700
C4182       C  0.32813325  0.83937979  0.95870699    -0.01600
C4183       C  0.31663564  0.83618922  0.94566657    -0.11800
C4184       C  0.32095504  0.82533581  0.93246048    -0.10200
H4185       H  0.36012034  0.81417060  0.94589403     0.07700
H4186       H  0.35281005  0.83331722  0.96853565     0.11400
H4187       H  0.30451447  0.84236810  0.94548780     0.11100
H4188       H  0.31205770  0.82334946  0.92233258     0.07700
C4189       C  0.80161459  0.62294654  0.19125052    -0.11400
C4190       C  0.79333612  0.63859173  0.19138559     0.05700
C4191       C  0.79751693  0.65050538  0.20372938    -0.10200
C4192       C  0.80978695  0.64676523  0.21582690    -0.11800
C4193       C  0.81768570  0.63090386  0.21599109    -0.01600
C4194       C  0.81356705  0.61906446  0.20355899    -0.10700
C4195       C  0.77983890  0.64197303  0.17906255     0.05800
H4196       H  0.79123283  0.66262881  0.20402778     0.07700
H4197       H  0.81269498  0.65603415  0.22539186     0.11200
H4198       H  0.81957298  0.60679751  0.20341205     0.11400
H4199       H  0.79846771  0.61355492  0.18188009     0.07700
C4200       C  0.78295674  0.64041641  0.16181597    -0.11400
C4201       C  0.76978930  0.64141718  0.15021431    -0.10700
C4202       C  0.75331421  0.64376711  0.15570939    -0.01600
C4203       C  0.75021111  0.64579434  0.17290723    -0.11800
C4204       C  0.76343908  0.64511993  0.18451609    -0.10200
H4205       H  0.79550723  0.63785094  0.15739984     0.07700
H4206       H  0.77233863  0.63923523  0.13706844     0.11400
H4207       H  0.73750671  0.64727934  0.17735491     0.11100
H4208       H  0.76077365  0.64613463  0.19779652     0.07700
C4209       C  0.79642331  0.63118652  0.05481643    -0.11400
C4210       C  0.79064847  0.64612361  0.06233407     0.05700
C4211       C  0.79756692  0.66156113  0.05747043    -0.10200
C4212       C  0.80982410  0.66208012  0.04505352    -0.11800
C4213       C  0.81555746  0.64714172  0.03743742    -0.01600
C4214       C  0.80882767  0.63167277  0.04255599    -0.10700
C4215       C  0.77721139  0.64551530  0.07499271     0.05800
H4216       H  0.79325322  0.67323886  0.06304723     0.07700
H4217       H  0.81483303  0.67419379  0.04144499     0.11200
H4218       H  0.81303243  0.61995406  0.03698662     0.11400
H4219       H  0.79137663  0.61911152  0.05851222     0.07700
C4220       C  0.76272984  0.63611756  0.07178770    -0.11400
C4221       C  0.75033723  0.63472911  0.08394156    -0.10700
C4222       C  0.75225417  0.64246512  0.09975169    -0.01600
C4223       C  0.76648813  0.65247394  0.10266521    -0.11800
C4224       C  0.77883658  0.65400080  0.09038794    -0.10200
H4225       H  0.76101015  0.62981519  0.05983127     0.07700
H4226       H  0.73928059  0.62750425  0.08088240     0.11400
H4227       H  0.76844848  0.65873671  0.11456475     0.11100
H4228       H  0.78990429  0.66137530  0.09311383     0.07700
C4229       C  0.69703347  0.58133268  0.12298127    -0.11400
C4230       C  0.68557684  0.58130847  0.13629407     0.05700
C4231       C  0.68520658  0.59520984  0.14719699    -0.10200
C4232       C  0.69592135  0.60881237  0.14476446    -0.11800
C4233       C  0.70721040  0.60906928  0.13126454    -0.01600
C4234       C  0.70766521  0.59501776  0.12043931    -0.10700
C4235       C  0.67385405  0.56699545  0.13858764     0.05800
H4236       H  0.67640317  0.59576206  0.15745130     0.07700
H4237       H  0.69527344  0.61935480  0.15339150     0.11200
H4238       H  0.71613506  0.59422629  0.11001453     0.11400
H4239       H  0.69790395  0.57066708  0.11454075     0.07700
C4240       C  0.66682080  0.55884569  0.12455864    -0.11400
C4241       C  0.65564146  0.54556339  0.12660294    -0.10700
C4242       C  0.65112142  0.54012147  0.14273081    -0.01600
C4243       C  0.65813038  0.54822210  0.15679365    -0.11800
C4244       C  0.66939807  0.56149638  0.15474522    -0.10200
H4245       H  0.66969452  0.56293182  0.11194196     0.07700
H4246       H  0.65041368  0.53965976  0.11548976     0.11400
H4247       H  0.65488757  0.54433736  0.16938483     0.11100
H4248       H  0.67473657  0.56733954  0.16583146     0.07700
C4249       C  0.31334756  0.70044971  0.14834893    -0.11400
C4250       C  0.29610638  0.70204857  0.14494653     0.05700
C4251       C  0.29012720  0.71696422  0.13744406    -0.10200
C4252       C  0.30109996  0.72979801  0.13307676    -0.11800
C4253       C  0.31833712  0.72808102  0.13612212    -0.01600
C4254       C  0.32436485  0.71343458  0.14407978    -0.10700
C4255       C  0.28434451  0.68793298  0.14787601     0.05800
H4256       H  0.27697825  0.71850359  0.13437781     0.07700
H4257       H  0.29609029  0.74105587  0.12717719     0.11200
H4258       H  0.33763338  0.71179604  0.14650166     0.11400
H4259       H  0.31830374  0.68911583  0.15414248     0.07700
C4260       C  0.28859572  0.67137869  0.14310019    -0.11400
C4261       C  0.27629778  0.65887972  0.14233299    -0.10700
C4262       C  0.25969960  0.66280106  0.14641251    -0.01600
C4263       C  0.25570833  0.67886558  0.15246289    -0.11800
C4264       C  0.26795357  0.69130765  0.15331799    -0.10200
H4265       H  0.30107709  0.66841249  0.13874795     0.07700
H4266       H  0.27946743  0.64653070  0.13745247     0.11400
H4267       H  0.24288845  0.68204953  0.15555325     0.11100
H4268       H  0.26438328  0.70384527  0.15735731     0.07700
C4269       C  0.39299965  0.71792676  0.15080292    -0.11400
C4270       C  0.40154909  0.71083793  0.13707639     0.05700
C4271       C  0.39667845  0.71575079  0.12079953    -0.10200
C4272       C  0.38332578  0.72682869  0.11823874    -0.11800
C4273       C  0.37466976  0.73391114  0.13188476    -0.01600
C4274       C  0.37978141  0.72939122  0.14823283    -0.10700
C4275       C  0.41518723  0.69807404  0.13942952     0.05800
H4276       H  0.40314231  0.71099444  0.10986963     0.07700
H4277       H  0.37967660  0.72946361  0.10540879     0.11200
H4278       H  0.37362644  0.73465856  0.15909694     0.11400
H4279       H  0.39626709  0.71439107  0.16353859     0.07700
C4280       C  0.42614504  0.69856971  0.15338003    -0.11400
C4281       C  0.43910724  0.68667184  0.15508916    -0.10700
C4282       C  0.44153460  0.67425988  0.14273492    -0.01600
C4283       C  0.43056416  0.67369029  0.12892929    -0.11800
C4284       C  0.41746030  0.68525484  0.12741366    -0.10200
H4285       H  0.42493622  0.70831261  0.16281581     0.07700
H4286       H  0.44743136  0.68739169  0.16586273     0.11400
H4287       H  0.43194779  0.66408394  0.11935919     0.11100
H4288       H  0.40901341  0.68398667  0.11680803     0.07700
C4289       C  0.34899673  0.80374046  0.21787552    -0.11400
C4290       C  0.34216048  0.80853894  0.20226031     0.05700
C4291       C  0.33706712  0.82544565  0.20004306    -0.10200
C4292       C  0.33926789  0.83729937  0.21288413    -0.11800
C4293       C  0.34684805  0.83259096  0.22811197    -0.01600
C4294       C  0.35139442  0.81564105  0.23060292    -0.10700
C4295       C  0.34114351  0.79626440  0.18807467     0.05800
H4296       H  0.33198722  0.82973755  0.18814789     0.07700
H4297       H  0.33574667  0.85030339  0.21061362     0.11200
H4298       H  0.35692754  0.81159903  0.24239740     0.11400
H4299       H  0.35265201  0.79080161  0.22024663     0.07700
C4300       C  0.35364128  0.78384095  0.18583646    -0.11400
C4301       C  0.35355404  0.77344291  0.17160745    -0.10700
C4302       C  0.34115914  0.77546955  0.15923880    -0.01600
C4303       C  0.32828453  0.78729299  0.16176940    -0.11800
C4304       C  0.32819109  0.79746753  0.17607128    -0.10200
H4305       H  0.36393986  0.78263060  0.19466655     0.07700
H4306       H  0.36365198  0.76447349  0.16983089     0.11400
H4307       H  0.31842611  0.78887295  0.15247522     0.11100
H4308       H  0.31809782  0.80648614  0.17755129     0.07700
C4309       C  0.34697373  0.78853129  0.07153940    -0.11400
C4310       C  0.33130422  0.79646827  0.06970224     0.05700
C4311       C  0.31860521  0.79250596  0.08110888    -0.10200
C4312       C  0.32175505  0.78142558  0.09442430    -0.11800
C4313       C  0.33763488  0.77388407  0.09667701    -0.01600
C4314       C  0.35014582  0.77748113  0.08483556    -0.10700
C4315       C  0.32864298  0.80953493  0.05653964     0.05800
H4316       H  0.30643532  0.79851637  0.08019700     0.07700
H4317       H  0.31187998  0.77915114  0.10337597     0.11200
H4318       H  0.36266040  0.77247565  0.08588303     0.11400
H4319       H  0.35696946  0.79107751  0.06280525     0.07700
C4320       C  0.34158565  0.82077955  0.05268589    -0.11400
C4321       C  0.33931155  0.83316086  0.04047399    -0.10700
C4322       C  0.32396861  0.83478954  0.03185984    -0.01600
C4323       C  0.31090685  0.82369831  0.03576516    -0.11800
C4324       C  0.31323423  0.81116085  0.04797136    -0.10200
H4325       H  0.35345864  0.82021888  0.05931790     0.07700
H4326       H  0.34959283  0.84160511  0.03792744     0.11400
H4327       H  0.29894232  0.82464868  0.02934094     0.11100
H4328       H  0.30304139  0.80263400  0.05056539     0.07700
C4329       C  0.10439964  0.31687595  0.71609708    -0.11400
C4330       C  0.12028060  0.30911975  0.71558860     0.05700
C4331       C  0.13283719  0.31492821  0.72665013    -0.10200
C4332       C  0.12953628  0.32805803  0.73793672    -0.11800
C4333       C  0.11356755  0.33546679  0.73857555    -0.01600
C4334       C  0.10105770  0.32976491  0.72752579    -0.10700
C4335       C  0.12357496  0.29511893  0.70351250     0.05800
H4336       H  0.14513675  0.30915074  0.72683028     0.07700
H4337       H  0.13935206  0.33212479  0.74645107     0.11200
H4338       H  0.08872000  0.33548645  0.72750905     0.11400
H4339       H  0.09453016  0.31318675  0.70748740     0.07700
C4340       C  0.11065579  0.28397244  0.69894882    -0.11400
C4341       C  0.11326407  0.27157409  0.68683022    -0.10700
C4342       C  0.12890902  0.26961533  0.67931132    -0.01600
C4343       C  0.14208321  0.28020488  0.68421709    -0.11800
C4344       C  0.13940690  0.29295920  0.69608960    -0.10200
H4345       H  0.09846285  0.28480236  0.70472410     0.07700
H4346       H  0.10302822  0.26339304  0.68344051     0.11400
H4347       H  0.15427017  0.27894540  0.67846372     0.11100
H4348       H  0.14962031  0.30137958  0.69908122     0.07700
C4349       C  0.11782584  0.42260495  0.73274618    -0.11400
C4350       C  0.12270914  0.41859578  0.71636228     0.05700
C4351       C  0.12582306  0.40170590  0.71204113    -0.10200
C4352       C  0.12334553  0.38889982  0.72383891    -0.11800
C4353       C  0.11777831  0.39292712  0.74002167    -0.01600
C4354       C  0.11546232  0.40988920  0.74449880    -0.10700
C4355       C  0.12355268  0.43203454  0.70366828     0.05800
H4356       H  0.12947756  0.39841055  0.69938226     0.07700
H4357       H  0.12495591  0.37586704  0.72009992     0.11200
H4358       H  0.11130686  0.41325900  0.75698153     0.11400
H4359       H  0.11551958  0.43557966  0.73633002     0.07700
C4360       C  0.10957486  0.44244851  0.70086096    -0.11400
C4361       C  0.11017644  0.45528223  0.68895150    -0.10700
C4362       C  0.12485873  0.45809406  0.67979698    -0.01600
C4363       C  0.13894282  0.44778858  0.68278007    -0.11800
C4364       C  0.13822639  0.43471810  0.69452571    -0.10200
H4365       H  0.09812445  0.44051946  0.70779171     0.07700
H4366       H  0.09916109  0.46307068  0.68698244     0.11400
H4367       H  0.15041265  0.44968737  0.67588847     0.11100
H4368       H  0.14915489  0.42684337  0.69664336     0.07700
C4369       C  0.16735147  0.37299994  0.78990183    -0.11400
C4370       C  0.16874824  0.36292171  0.80442661     0.05700
C4371       C  0.15558602  0.35187496  0.80821772    -0.10200
C4372       C  0.14113725  0.35148433  0.79824616    -0.11800
C4373       C  0.13960996  0.36189651  0.78407767    -0.01600
C4374       C  0.15296765  0.37238091  0.77975564    -0.10700
C4375       C  0.18340124  0.36455519  0.81604014     0.05800
H4376       H  0.15634378  0.34362693  0.81902007     0.07700
H4377       H  0.13104270  0.34313941  0.80169800     0.11200
H4378       H  0.15196128  0.38066442  0.76898300     0.11400
H4379       H  0.17707740  0.38185359  0.78669697     0.07700
C4380       C  0.19946805  0.36812397  0.80988008    -0.11400
C4381       C  0.21285265  0.37100650  0.82094042    -0.10700
C4382       C  0.21051856  0.37014662  0.83837931    -0.01600
C4383       C  0.19470944  0.36590372  0.84455796    -0.11800
C4384       C  0.18127344  0.36327480  0.83353983    -0.10200
H4385       H  0.20168523  0.36886180  0.79650888     0.07700
H4386       H  0.22499954  0.37410481  0.81587952     0.11400
H4387       H  0.19251865  0.36543964  0.85795711     0.11100
H4388       H  0.16906898  0.36088876  0.83881678     0.07700
C4389       C  0.02790032  0.38176277  0.81842630    -0.11400
C4390       C  0.03263052  0.36665140  0.81052943     0.05700
C4391       C  0.02338564  0.35198055  0.81350136    -0.10200
C4392       C  0.00999185  0.35227249  0.82459323    -0.11800
C4393       C  0.00555148  0.36726837  0.83284154    -0.01600
C4394       C  0.01443972  0.38207986  0.82945444    -0.10700
C4395       C  0.04753198  0.36608210  0.79970179     0.05800
H4396       H  0.02659981  0.34024378  0.80734244     0.07700
H4397       H  0.00327729  0.34068928  0.82689547     0.11200
H4398       H  0.01134641  0.39379259  0.83572426     0.11400
H4399       H  0.03494176  0.39321824  0.81650524     0.07700
C4400       C  0.05079198  0.37930863  0.78858943    -0.11400
C4401       C  0.06526425  0.37922292  0.77895331    -0.10700
C4402       C  0.07691941  0.36583906  0.78022211    -0.01600
C4403       C  0.07328902  0.35237780  0.79106657    -0.11800
C4404       C  0.05883108  0.35252325  0.80074721    -0.10200
H4405       H  0.04210302  0.38976510  0.78732177     0.07700
H4406       H  0.06694300  0.38980358  0.77072392     0.11400
H4407       H  0.08190472  0.34185552  0.79229745     0.11100
H4408       H  0.05671384  0.34221522  0.80936489     0.07700
C4409       C  0.63667300  0.19344232  0.78378616    -0.11400
C4410       C  0.63136689  0.19085430  0.80038254     0.05700
C4411       C  0.62629146  0.17464352  0.80524960    -0.10200
C4412       C  0.62561662  0.16153668  0.79348923    -0.11800
C4413       C  0.63022982  0.16440596  0.77679389    -0.01600
C4414       C  0.63613646  0.18028971  0.77208616    -0.10700
C4415       C  0.62931254  0.20533637  0.81201054     0.05800
H4416       H  0.62193802  0.17237030  0.81789021     0.07700
H4417       H  0.62079630  0.14937219  0.79721309     0.11200
H4418       H  0.63957409  0.18270016  0.75917787     0.11400
H4419       H  0.64068168  0.20580086  0.77974585     0.07700
C4420       C  0.63489949  0.20447173  0.82876920    -0.11400
C4421       C  0.63137977  0.21760557  0.84002197    -0.10700
C4422       C  0.62198137  0.23171210  0.83477586    -0.01600
C4423       C  0.61689091  0.23275282  0.81785893    -0.11800
C4424       C  0.62054620  0.21974945  0.80661689    -0.10200
H4425       H  0.64171534  0.19349474  0.83321496     0.07700
H4426       H  0.63537316  0.21634213  0.85298124     0.11400
H4427       H  0.60985722  0.24354700  0.81332498     0.11100
H4428       H  0.61596149  0.22068153  0.79381221     0.07700
C4429       C  0.65098492  0.09647645  0.79536105    -0.11400
C4430       C  0.64616210  0.07992992  0.79141330     0.05700
C4431       C  0.63736494  0.07695438  0.77637880    -0.10200
C4432       C  0.63267895  0.09031738  0.76595619    -0.11800
C4433       C  0.63656493  0.10700502  0.77039254    -0.01600
C4434       C  0.64618681  0.10991464  0.78495091    -0.10700
C4435       C  0.64869009  0.06603879  0.80363236     0.05800
H4436       H  0.63374645  0.06427797  0.77289873     0.07700
H4437       H  0.62573031  0.08757346  0.75456268     0.11200
H4438       H  0.64929130  0.12262074  0.78876863     0.11400
H4439       H  0.65767238  0.09911425  0.80694087     0.07700
C4440       C  0.66409900  0.06348677  0.81193856    -0.11400
C4441       C  0.66590774  0.05057923  0.82388041    -0.10700
C4442       C  0.65223577  0.04026524  0.82788409    -0.01600
C4443       C  0.63691223  0.04286717  0.81948482    -0.11800
C4444       C  0.63518918  0.05552005  0.80747857    -0.10200
H4445       H  0.67469452  0.07145313  0.80917797     0.07700
H4446       H  0.67783267  0.04892848  0.83024427     0.11400
H4447       H  0.62613179  0.03516584  0.82227911     0.11100
H4448       H  0.62310356  0.05736327  0.80147481     0.07700
C4449       C  0.57450213  0.15176239  0.71356775    -0.11400
C4450       C  0.56255285  0.13895071  0.71503253     0.05700
C4451       C  0.56551201  0.12586506  0.72656407    -0.10200
C4452       C  0.58040780  0.12515504  0.73585696    -0.11800
C4453       C  0.59279294  0.13756801  0.73385479    -0.01600
C4454       C  0.58930165  0.15117253  0.72299454    -0.10700
C4455       C  0.54749420  0.13877510  0.70397378     0.05800
H4456       H  0.55629917  0.11607933  0.72836784     0.07700
H4457       H  0.58186717  0.11488935  0.74459919     0.11200
H4458       H  0.59833492  0.16117486  0.72143333     0.11400
H4459       H  0.57267727  0.16199803  0.70474857     0.07700
C4460       C  0.53911269  0.15380933  0.69963889    -0.11400
C4461       C  0.52569684  0.15362656  0.68824281    -0.10700
C4462       C  0.52033981  0.13839359  0.68104914    -0.01600
C4463       C  0.52842152  0.12333123  0.68574046    -0.11800
C4464       C  0.54187114  0.12352731  0.69700740    -0.10200
H4465       H  0.54298358  0.16572978  0.70498774     0.07700
H4466       H  0.51961384  0.16541340  0.68496576     0.11400
H4467       H  0.52465089  0.11138848  0.68035610     0.11100
H4468       H  0.54820549  0.11176185  0.69984369     0.07700
C4469       C  0.70289116  0.15988695  0.32250143    -0.11400
C4470       C  0.69912387  0.14642264  0.31154761     0.05700
C4471       C  0.70612136  0.13045770  0.31513052    -0.10200
C4472       C  0.71553675  0.12780681  0.32982061    -0.11800
C4473       C  0.71786457  0.14094439  0.34133491    -0.01600
C4474       C  0.71191218  0.15710018  0.33737666    -0.10700
C4475       C  0.68625735  0.14847265  0.29790557     0.05800
H4476       H  0.70346721  0.11971266  0.30719622     0.07700
H4477       H  0.72008912  0.11525039  0.33272071     0.11200
H4478       H  0.71381678  0.16744413  0.34605949     0.11400
H4479       H  0.69828966  0.17248699  0.31996353     0.07700
C4480       C  0.67255623  0.15940247  0.30034480    -0.11400
C4481       C  0.65898110  0.15941739  0.28925060    -0.10700
C4482       C  0.65853430  0.14837850  0.27548047    -0.01600
C4483       C  0.67263042  0.13831838  0.27219015    -0.11800
C4484       C  0.68639222  0.13837145  0.28329826    -0.10200
H4485       H  0.67169020  0.16723155  0.31143107     0.07700
H4486       H  0.64835483  0.16747896  0.29196766     0.11400
H4487       H  0.67258507  0.12967898  0.26165479     0.11100
H4488       H  0.69683811  0.13004096  0.28075599     0.07700
C4489       C  0.70615378  0.14256456  0.43233888    -0.11400
C4490       C  0.69241701  0.13159326  0.43227737     0.05700
C4491       C  0.68939817  0.12177126  0.41790808    -0.10200
C4492       C  0.69991848  0.12282394  0.40399673    -0.11800
C4493       C  0.71379676  0.13371254  0.40397691    -0.01600
C4494       C  0.71669815  0.14363498  0.41843077    -0.10700
C4495       C  0.68112863  0.13056899  0.44703343     0.05800
H4496       H  0.67875817  0.11338591  0.41733314     0.07700
H4497       H  0.69724321  0.11502522  0.39314292     0.11200
H4498       H  0.72706364  0.15219424  0.41942651     0.11400
H4499       H  0.70891484  0.15019147  0.44328933     0.07700
C4500       C  0.67488609  0.11496423  0.45247575    -0.11400
C4501       C  0.66375018  0.11410529  0.46595323    -0.10700
C4502       C  0.65853561  0.12884743  0.47423803    -0.01600
C4503       C  0.66504334  0.14441088  0.46898780    -0.11800
C4504       C  0.67622255  0.14525540  0.45559085    -0.10200
H4505       H  0.67863286  0.10339627  0.44630564     0.07700
H4506       H  0.65903504  0.10191960  0.46971487     0.11400
H4507       H  0.66133899  0.15602236  0.47510571     0.11100
H4508       H  0.68068275  0.15748227  0.45164441     0.07700
C4509       C  0.79206335  0.16137454  0.36017786    -0.11400
C4510       C  0.79241929  0.17750190  0.36745984     0.05700
C4511       C  0.77872761  0.18282516  0.37712169    -0.10200
C4512       C  0.76488084  0.17248869  0.37918943    -0.11800
C4513       C  0.76441893  0.15637864  0.37190129    -0.01600
C4514       C  0.77817999  0.15091523  0.36238378    -0.10700
C4515       C  0.80701970  0.18881184  0.36553213     0.05800
H4516       H  0.77874361  0.19500156  0.38326672     0.07700
H4517       H  0.75445307  0.17728474  0.38638428     0.11200
H4518       H  0.77838275  0.13850570  0.35683012     0.11400
H4519       H  0.80243668  0.15690305  0.35269034     0.07700
C4520       C  0.82352614  0.18257469  0.36670643    -0.11400
C4521       C  0.83703763  0.19372724  0.36780784    -0.10700
C4522       C  0.83412356  0.21115089  0.36788370    -0.01600
C4523       C  0.81785291  0.21735085  0.36543819    -0.11800
C4524       C  0.80444444  0.20629232  0.36409132    -0.10200
H4525       H  0.82591390  0.16918046  0.36784398     0.07700
H4526       H  0.84957708  0.18880339  0.36974797     0.11400
H4527       H  0.81546325  0.23080623  0.36532183     0.11100
H4528       H  0.79194790  0.21147184  0.36265063     0.07700
C4529       C  0.79456240  0.05453525  0.34484903    -0.11400
C4530       C  0.78946879  0.06013569  0.36075545     0.05700
C4531       C  0.79696104  0.05307695  0.37513875    -0.10200
C4532       C  0.80935378  0.04069515  0.37364747    -0.11800
C4533       C  0.81443965  0.03501854  0.35773045    -0.01600
C4534       C  0.80687561  0.04204514  0.34334538    -0.10700
C4535       C  0.77669079  0.07361903  0.36238514     0.05800
H4536       H  0.79339614  0.05732632  0.38754314     0.07700
H4537       H  0.81490154  0.03552876  0.38499153     0.11200
H4538       H  0.81042611  0.03786220  0.33092093     0.11400
H4539       H  0.78888183  0.05971371  0.33357582     0.07700
C4540       C  0.77776903  0.08830686  0.35272337    -0.11400
C4541       C  0.76643593  0.10155553  0.35503286    -0.10700
C4542       C  0.75364424  0.10052137  0.36710005    -0.01600
C4543       C  0.75211305  0.08525700  0.37607793    -0.11800
C4544       C  0.76359893  0.07210139  0.37389065    -0.10200
H4545       H  0.78776122  0.08978754  0.34373164     0.07700
H4546       H  0.76824271  0.11263752  0.34750862     0.11400
H4547       H  0.74223315  0.08329718  0.38501748     0.11100
H4548       H  0.76226978  0.06071069  0.38124110     0.07700
C4549       C  0.19269783  0.81532264  0.65279331    -0.11400
C4550       C  0.18242263  0.81200349  0.63873952     0.05700
C4551       C  0.18528532  0.82076200  0.62374312    -0.10200
C4552       C  0.19870010  0.83192423  0.62256401    -0.11800
C4553       C  0.20936861  0.83469624  0.63641589    -0.01600
C4554       C  0.20597926  0.82668407  0.65167332    -0.10700
C4555       C  0.16962161  0.79854231  0.63940215     0.05800
H4556       H  0.17759491  0.81843925  0.61273085     0.07700
H4557       H  0.20089929  0.83822642  0.61072935     0.11200
H4558       H  0.21399595  0.82868782  0.66251565     0.11400
H4559       H  0.19062167  0.80887585  0.66457209     0.07700
C4560       C  0.17378709  0.78292922  0.64657220    -0.11400
C4561       C  0.16198696  0.77009211  0.64736893    -0.10700
C4562       C  0.14562563  0.77255435  0.64115857    -0.01600
C4563       C  0.14155531  0.78797656  0.63347436    -0.11800
C4564       C  0.15346485  0.80088549  0.63259262    -0.10200
H4565       H  0.18627514  0.78058872  0.65146104     0.07700
H4566       H  0.16570487  0.75818031  0.65291424     0.11400
H4567       H  0.12909002  0.79025126  0.62860950     0.11100
H4568       H  0.14995866  0.81280473  0.62692300     0.07700
C4569       C  0.04100984  0.80812350  0.61933234    -0.11400
C4570       C  0.04542167  0.79846961  0.63347367     0.05700
C4571       C  0.03645983  0.80080280  0.64842889    -0.10200
C4572       C  0.02361862  0.81280742  0.64934563    -0.11800
C4573       C  0.01930511  0.82263830  0.63526646    -0.01600
C4574       C  0.02799615  0.81999327  0.62017716    -0.10700
C4575       C  0.05960022  0.78630234  0.63292198     0.05800
H4576       H  0.03968669  0.79362327  0.65956804     0.07700
H4577       H  0.01716877  0.81449197  0.66114521     0.11200
H4578       H  0.02497524  0.82734440  0.60910031     0.11400
H4579       H  0.04763499  0.80647076  0.60762736     0.07700
C4580       C  0.05786724  0.77017474  0.63984064    -0.11400
C4581       C  0.07160753  0.75929493  0.64098662    -0.10700
C4582       C  0.08758273  0.76440578  0.63564102    -0.01600
C4583       C  0.08906674  0.78013389  0.62771456    -0.11800
C4584       C  0.07519444  0.79097876  0.62634639    -0.10200
H4585       H  0.04590116  0.76608061  0.64462740     0.07700
H4586       H  0.06973781  0.74700191  0.64651776     0.11400
H4587       H  0.10104899  0.78445633  0.62331715     0.11100
H4588       H  0.07685168  0.80335057  0.62089231     0.07700
C4589       C  0.13831943  0.70349621  0.59507729    -0.11400
C4590       C  0.12685729  0.70607184  0.58185523     0.05700
C4591       C  0.11552492  0.71969168  0.58291767    -0.10200
C4592       C  0.11516337  0.72999858  0.59725972    -0.11800
C4593       C  0.12596588  0.72670129  0.61085301    -0.01600
C4594       C  0.13787605  0.71367304  0.60937605    -0.10700
C4595       C  0.12624818  0.69396801  0.56754982     0.05800
H4596       H  0.10668785  0.72211510  0.57281671     0.07700
H4597       H  0.10581669  0.73988908  0.59812094     0.11200
H4598       H  0.14647278  0.71093325  0.61961305     0.11400
H4599       H  0.14714283  0.69309651  0.59472522     0.07700
C4600       C  0.14109592  0.68771513  0.56044958    -0.11400
C4601       C  0.14057681  0.67549556  0.54777673    -0.10700
C4602       C  0.12519208  0.66914812  0.54190918    -0.01600
C4603       C  0.11032195  0.67551759  0.54889588    -0.11800
C4604       C  0.11084687  0.68780707  0.56154159    -0.10200
H4605       H  0.15315334  0.69227081  0.56473003     0.07700
H4606       H  0.15227522  0.67091712  0.54267405     0.11400
H4607       H  0.09826232  0.67086424  0.54473659     0.11100
H4608       H  0.09920280  0.69215992  0.56695040     0.07700
C4609       C  0.70826831  0.30808325  0.13423634    -0.11400
C4610       C  0.69549400  0.30391608  0.14550127     0.05700
C4611       C  0.69294378  0.31405468  0.15972309    -0.10200
C4612       C  0.70219182  0.32875838  0.16201923    -0.11800
C4613       C  0.71437482  0.33336602  0.15032135    -0.01600
C4614       C  0.71781163  0.32262317  0.13676276    -0.10700
C4615       C  0.68313034  0.29074639  0.14132582     0.05800
H4616       H  0.68300914  0.31121855  0.16844766     0.07700
H4617       H  0.69936519  0.33691782  0.17254609     0.11200
H4618       H  0.72706675  0.32607440  0.12752366     0.11400
H4619       H  0.71035743  0.30047692  0.12314257     0.07700
C4620       C  0.67424464  0.29173751  0.12606545    -0.11400
C4621       C  0.65977187  0.28222977  0.12362420    -0.10700
C4622       C  0.65425504  0.27133152  0.13623655    -0.01600
C4623       C  0.66391474  0.26916075  0.15084345    -0.11800
C4624       C  0.67818854  0.27897923  0.15347627    -0.10200
H4625       H  0.67772164  0.30084408  0.11660027     0.07700
H4626       H  0.65237314  0.28404078  0.11230296     0.11400
H4627       H  0.65970726  0.26084965  0.16072410     0.11100
H4628       H  0.68485689  0.27805958  0.16533760     0.07700
C4629       C  0.68698372  0.41107346  0.13615435    -0.11400
C4630       C  0.68742180  0.42371675  0.14845501     0.05700
C4631       C  0.69930634  0.42255180  0.16149057    -0.10200
C4632       C  0.71050659  0.40900797  0.16229398    -0.11800
C4633       C  0.71010828  0.39623332  0.15001166    -0.01600
C4634       C  0.69812774  0.39749234  0.13697306    -0.10700
C4635       C  0.67531399  0.43791610  0.14796394     0.05800
H4636       H  0.70002093  0.43222168  0.17106996     0.07700
H4637       H  0.71920627  0.40876235  0.17268771     0.11200
H4638       H  0.69737373  0.38782555  0.12738626     0.11400
H4639       H  0.67780707  0.41150531  0.12607950     0.07700
C4640       C  0.67119431  0.44595877  0.13274375    -0.11400
C4641       C  0.65978308  0.45938796  0.13244999    -0.10700
C4642       C  0.65234436  0.46503036  0.14738277    -0.01600
C4643       C  0.65646301  0.45694652  0.16255694    -0.11800
C4644       C  0.66777123  0.44351771  0.16283399    -0.10200
H4645       H  0.67693587  0.44198567  0.12110985     0.07700
H4646       H  0.65682538  0.46537095  0.12056466     0.11400
H4647       H  0.65075955  0.46083737  0.17423768     0.11100
H4648       H  0.67044802  0.43735365  0.17469052     0.07700
C4649       C  0.77743329  0.34398353  0.19061293    -0.11400
C4650       C  0.78763477  0.35747714  0.19562408     0.05700
C4651       C  0.78422605  0.37367592  0.18941193    -0.10200
C4652       C  0.77047891  0.37642466  0.17879076    -0.11800
C4653       C  0.76005871  0.36297163  0.17405361    -0.01600
C4654       C  0.76382793  0.34668943  0.17981956    -0.10700
C4655       C  0.80117957  0.35474093  0.20806481     0.05800
H4656       H  0.79191547  0.38425809  0.19315420     0.07700
H4657       H  0.76803634  0.38905986  0.17423214     0.11200
H4658       H  0.75599428  0.33612564  0.17636078     0.11400
H4659       H  0.77993015  0.33136018  0.19519032     0.07700
C4660       C  0.79771365  0.34624118  0.22305222    -0.11400
C4661       C  0.81033975  0.34337357  0.23488848    -0.10700
C4662       C  0.82678141  0.34876499  0.23190693    -0.01600
C4663       C  0.83021608  0.35754930  0.21701102    -0.11800
C4664       C  0.81747650  0.36058695  0.20519897    -0.10200
H4665       H  0.78515533  0.34192272  0.22565748     0.07700
H4666       H  0.80719047  0.33694264  0.24641625     0.11400
H4667       H  0.84279840  0.36167610  0.21427247     0.11100
H4668       H  0.82040389  0.36715245  0.19367614     0.07700
C4669       C  0.79317126  0.37386916  0.07145809    -0.11400
C4670       C  0.78872157  0.35864601  0.07908259     0.05700
C4671       C  0.79609269  0.34354106  0.07365258    -0.10200
C4672       C  0.80757955  0.34365800  0.06048586    -0.11800
C4673       C  0.81200152  0.35892642  0.05277533    -0.01600
C4674       C  0.80474720  0.37403013  0.05848052    -0.10700
C4675       C  0.77612417  0.35872953  0.09246155     0.05800
H4676       H  0.79273609  0.33167516  0.07940275     0.07700
H4677       H  0.81300807  0.33183595  0.05637953     0.11200
H4678       H  0.80795276  0.38600899  0.05288036     0.11400
H4679       H  0.78770342  0.38566343  0.07561815     0.07700
C4680       C  0.77990168  0.35215886  0.10838668    -0.11400
C4681       C  0.76842007  0.35384188  0.12144747    -0.10700
C4682       C  0.75290941  0.36190148  0.11867020    -0.01600
C4683       C  0.74894421  0.36777980  0.10247653    -0.11800
C4684       C  0.76050604  0.36633736  0.08954379    -0.10200
H4685       H  0.79198046  0.34637081  0.11087081     0.07700
H4686       H  0.77202730  0.34945754  0.13382528     0.11400
H4687       H  0.73698454  0.37370973  0.09981760     0.11100
H4688       H  0.75734220  0.37132632  0.07725618     0.07700
C4689       C  0.66550081  0.71218600  0.14626737    -0.11400
C4690       C  0.67503254  0.71296946  0.13154848     0.05700
C4691       C  0.67027844  0.72430787  0.11880753    -0.10200
C4692       C  0.65594708  0.73436921  0.12059297    -0.11800
C4693       C  0.64601271  0.73292553  0.13495534    -0.01600
C4694       C  0.65099165  0.72194427  0.14786853    -0.10700
C4695       C  0.68835017  0.70029321  0.12870144     0.05800
H4696       H  0.67736091  0.72496291  0.10728402     0.07700
H4697       H  0.65212841  0.74257408  0.11039753     0.11200
H4698       H  0.64339084  0.72061763  0.15899408     0.11400
H4699       H  0.66876621  0.70332405  0.15611758     0.07700
C4700       C  0.70107574  0.69754504  0.14070565    -0.11400
C4701       C  0.71168493  0.68348578  0.13941683    -0.10700
C4702       C  0.70937083  0.67184384  0.12635917    -0.01600
C4703       C  0.69726768  0.67509244  0.11390080    -0.11800
C4704       C  0.68696099  0.68929803  0.11496211    -0.10200
H4705       H  0.70230210  0.70586420  0.15142842     0.07700
H4706       H  0.72085202  0.68105790  0.14922737     0.11400
H4707       H  0.69525908  0.66616786  0.10379005     0.11100
H4708       H  0.67712586  0.69105710  0.10567573     0.07700
C4709       C  0.61696182  0.81528938  0.21572209    -0.11400
C4710       C  0.62673403  0.81699307  0.20121540     0.05700
C4711       C  0.63555188  0.83216048  0.19894377    -0.10200
C4712       C  0.63415085  0.84539125  0.21059325    -0.11800
C4713       C  0.62398619  0.84374085  0.22483453    -0.01600
C4714       C  0.61582019  0.82830159  0.22741976    -0.10700
C4715       C  0.62688112  0.80324668  0.18833263     0.05800
H4716       H  0.64344097  0.83390445  0.18810354     0.07700
H4717       H  0.64067897  0.85702386  0.20815088     0.11200
H4718       H  0.60830786  0.82619326  0.23845424     0.11400
H4719       H  0.60969638  0.80404958  0.21792730     0.07700
C4720       C  0.62461054  0.78632039  0.19315148    -0.11400
C4721       C  0.62207779  0.77375983  0.18112686    -0.10700
C4722       C  0.62231729  0.77768140  0.16398949    -0.01600
C4723       C  0.62582302  0.79422164  0.15900383    -0.11800
C4724       C  0.62791338  0.80694098  0.17105159    -0.10200
H4725       H  0.62436955  0.78276304  0.20626032     0.07700
H4726       H  0.61962234  0.76099249  0.18520643     0.11400
H4727       H  0.62597574  0.79748125  0.14579530     0.11100
H4728       H  0.62949135  0.81976221  0.16675716     0.07700
C4729       C  0.63850068  0.79068367  0.08889984    -0.11400
C4730       C  0.62546150  0.79994423  0.08125450     0.05700
C4731       C  0.60904526  0.79770049  0.08712000    -0.10200
C4732       C  0.60570712  0.78619325  0.09993817    -0.11800
C4733       C  0.61871001  0.77671748  0.10733613    -0.01600
C4734       C  0.63516809  0.77927285  0.10181477    -0.10700
C4735       C  0.62887141  0.81159692  0.06700121     0.05800
H4736       H  0.59873479  0.80493678  0.08188975     0.07700
H4737       H  0.59294500  0.78491748  0.10420918     0.11200
H4738       H  0.64549518  0.77217839  0.10715352     0.11400
H4739       H  0.65126573  0.79190001  0.08462271     0.07700
C4740       C  0.64375647  0.82101127  0.06641504    -0.11400
C4741       C  0.64686330  0.83189147  0.05296573    -0.10700
C4742       C  0.63504860  0.83380448  0.03994687    -0.01600
C4743       C  0.62023322  0.82438190  0.04046148    -0.11800
C4744       C  0.61724720  0.81331237  0.05373434    -0.10200
H4745       H  0.65288741  0.82023388  0.07650242     0.07700
H4746       H  0.65829671  0.83916986  0.05299205     0.11400
H4747       H  0.61094686  0.82552694  0.03053851     0.11100
H4748       H  0.60584623  0.80599930  0.05351012     0.07700
C4749       C  0.56660796  0.71111107  0.12561370    -0.11400
C4750       C  0.55499441  0.71219143  0.13872930     0.05700
C4751       C  0.55718028  0.72470088  0.15100916    -0.10200
C4752       C  0.57101831  0.73541294  0.15063630    -0.11800
C4753       C  0.58318725  0.73385698  0.13796285    -0.01600
C4754       C  0.58043885  0.72184593  0.12520058    -0.10700
C4755       C  0.54103316  0.69992202  0.13997881     0.05800
H4756       H  0.54818860  0.72615560  0.16102392     0.07700
H4757       H  0.57191699  0.74469698  0.16045655     0.11200
H4758       H  0.58935593  0.72043079  0.11511120     0.11400
H4759       H  0.56532388  0.70158388  0.11595474     0.07700
C4760       C  0.53221289  0.69466937  0.12557472    -0.11400
C4761       C  0.51956116  0.68260403  0.12674302    -0.10700
C4762       C  0.51541456  0.67553603  0.14234786    -0.01600
C4763       C  0.52409133  0.68093916  0.15678128    -0.11800
C4764       C  0.53675750  0.69297287  0.15560597    -0.10200
H4765       H  0.53506461  0.69993336  0.11339229     0.07700
H4766       H  0.51304123  0.67879403  0.11539873     0.11400
H4767       H  0.52127278  0.67568437  0.16897834     0.11100
H4768       H  0.54348014  0.69655635  0.16690595     0.07700
C4769       C  0.13036432  0.68731423  0.72487716    -0.11400
C4770       C  0.11620156  0.68916064  0.71436536     0.05700
C4771       C  0.10300496  0.67756116  0.71591561    -0.10200
C4772       C  0.10462163  0.66365444  0.72649495    -0.11800
C4773       C  0.11915146  0.66146235  0.73617399    -0.01600
C4774       C  0.13171033  0.67365749  0.73585414    -0.10700
C4775       C  0.11596720  0.70195896  0.70072379     0.05800
H4776       H  0.09162691  0.67887411  0.70856048     0.07700
H4777       H  0.09470974  0.65439432  0.72686727     0.11200
H4778       H  0.14299954  0.67204809  0.74332470     0.11400
H4779       H  0.14086282  0.69581529  0.72399280     0.07700
C4780       C  0.12453887  0.71732007  0.70241513    -0.11400
C4781       C  0.12588878  0.72833665  0.68879893    -0.10700
C4782       C  0.11850401  0.72431614  0.67319588    -0.01600
C4783       C  0.10892909  0.70954456  0.67197909    -0.11800
C4784       C  0.10801432  0.69835383  0.68534752    -0.10200
H4785       H  0.13029882  0.72084398  0.71424257     0.07700
H4786       H  0.13247911  0.74000716  0.69079412     0.11400
H4787       H  0.10250164  0.70635904  0.66038577     0.11100
H4788       H  0.10147674  0.68661548  0.68332464     0.07700
C4789       C  0.16431801  0.65339006  0.80432414    -0.11400
C4790       C  0.18102724  0.64963175  0.80023726     0.05700
C4791       C  0.18459303  0.64264617  0.78447283    -0.10200
C4792       C  0.17161314  0.63888625  0.77326879    -0.11800
C4793       C  0.15486774  0.64193814  0.77771353    -0.01600
C4794       C  0.15135561  0.64961466  0.79313618    -0.10700
C4795       C  0.19439290  0.65196197  0.81296079     0.05800
H4796       H  0.19737616  0.63983061  0.78095819     0.07700
H4797       H  0.17463312  0.63322402  0.76128348     0.11200
H4798       H  0.13854937  0.65187135  0.79693787     0.11400
H4799       H  0.16119361  0.65853669  0.81651022     0.07700
C4800       C  0.19437211  0.66638419  0.82316248    -0.11400
C4801       C  0.20493667  0.66731942  0.83711258    -0.10700
C4802       C  0.21581504  0.65394935  0.84097671    -0.01600
C4803       C  0.21684856  0.64007447  0.83014856    -0.11800
C4804       C  0.20612998  0.63904717  0.81620526    -0.10200
H4805       H  0.18565742  0.67661710  0.82075714     0.07700
H4806       H  0.20409642  0.67815038  0.84536134     0.11400
H4807       H  0.22510404  0.62959529  0.83310249     0.11100
H4808       H  0.20630060  0.62772854  0.80859944     0.07700
C4809       C  0.04888209  0.66383636  0.81743247    -0.11400
C4810       C  0.05221667  0.64825650  0.80965482     0.05700
C4811       C  0.04015657  0.63546610  0.81054226    -0.10200
C4812       C  0.02561807  0.63777226  0.81980802    -0.11800
C4813       C  0.02263138  0.65301632  0.82822992    -0.01600
C4814       C  0.03415588  0.66621724  0.82660573    -0.10700
C4815       C  0.06827002  0.64498244  0.80091532     0.05800
H4816       H  0.04205764  0.62351772  0.80424544     0.07700
H4817       H  0.01685557  0.62744115  0.82068612     0.11200
H4818       H  0.03218587  0.67806035  0.83308165     0.11400
H4819       H  0.05792829  0.67393550  0.81699002     0.07700
C4820       C  0.07575248  0.65739197  0.79091597    -0.11400
C4821       C  0.09003785  0.65358856  0.78155055    -0.10700
C4822       C  0.09707132  0.63731707  0.78201369    -0.01600
C4823       C  0.09009709  0.62520966  0.79266858    -0.11800
C4824       C  0.07591319  0.62901231  0.80204966    -0.10200
H4825       H  0.07015823  0.66979502  0.78973962     0.07700
H4826       H  0.09503001  0.66314662  0.77332023     0.11400
H4827       H  0.09548043  0.61269069  0.79359185     0.11100
H4828       H  0.07079571  0.61933122  0.81006366     0.07700
C4829       C  0.11127394  0.58042261  0.72050951    -0.11400
C4830       C  0.12493505  0.56918040  0.72065455     0.05700
C4831       C  0.13840308  0.57239771  0.73160019    -0.10200
C4832       C  0.13869176  0.58697709  0.74140216    -0.11800
C4833       C  0.12540282  0.59873194  0.74061081    -0.01600
C4834       C  0.11143404  0.59485229  0.73049876    -0.10700
C4835       C  0.12553634  0.55481270  0.70868290     0.05800
H4836       H  0.14887669  0.56372421  0.73248650     0.07700
H4837       H  0.14947462  0.58872099  0.74938697     0.11200
H4838       H  0.10085800  0.60343330  0.72980709     0.11400
H4839       H  0.10070272  0.57851817  0.71215678     0.07700
C4840       C  0.11074333  0.54670738  0.70359142    -0.11400
C4841       C  0.11103180  0.53465557  0.69085766    -0.10700
C4842       C  0.12615375  0.53020941  0.68308117    -0.01600
C4843       C  0.14108678  0.53758870  0.68874718    -0.11800
C4844       C  0.14077461  0.54984567  0.70134194    -0.10200
H4845       H  0.09885776  0.54981436  0.70928031     0.07700
H4846       H  0.09933511  0.52894153  0.68699339     0.11400
H4847       H  0.15294686  0.53429516  0.68308775     0.11100
H4848       H  0.15241395  0.55590178  0.70478418     0.07700
C4849       C  0.29369166  0.15544777  0.71440660    -0.11400
C4850       C  0.28867481  0.13858806  0.71240959     0.05700
C4851       C  0.29592639  0.12616613  0.72277904    -0.10200
C4852       C  0.30869981  0.13034509  0.73409970    -0.11800
C4853       C  0.31435892  0.14698767  0.73527232    -0.01600
C4854       C  0.30653775  0.15958451  0.72567125    -0.10700
C4855       C  0.27761588  0.13379240  0.69814853     0.05800
H4856       H  0.29226838  0.11309781  0.72154998     0.07700
H4857       H  0.31496759  0.12039118  0.74102668     0.11200
H4858       H  0.31103268  0.17243295  0.72620257     0.11400
H4859       H  0.28852174  0.16525195  0.70643042     0.07700
C4860       C  0.26372207  0.14380298  0.69364426    -0.11400
C4861       C  0.25482926  0.14057400  0.67879353    -0.10700
C4862       C  0.25980150  0.12743096  0.66814262    -0.01600
C4863       C  0.27322363  0.11699665  0.67293903    -0.11800
C4864       C  0.28198679  0.12007381  0.68785362    -0.10200
H4865       H  0.26006119  0.15442581  0.70135543     0.07700
H4866       H  0.24470629  0.14893280  0.67517813     0.11400
H4867       H  0.27725686  0.10679417  0.66485129     0.11100
H4868       H  0.29276573  0.11227479  0.69084421     0.07700
C4869       C  0.39276514  0.13630043  0.71409017    -0.11400
C4870       C  0.40572998  0.14812730  0.71503601     0.05700
C4871       C  0.40392229  0.16198594  0.72594541    -0.10200
C4872       C  0.38946905  0.16395222  0.73565383    -0.11800
C4873       C  0.37651353  0.15201081  0.73471713    -0.01600
C4874       C  0.37847837  0.13817022  0.72382010    -0.10700
C4875       C  0.42069633  0.14618441  0.70415210     0.05800
H4876       H  0.41377096  0.17124090  0.72713063     0.07700
H4877       H  0.38877307  0.17468399  0.74394008     0.11200
H4878       H  0.36881393  0.12867951  0.72284765     0.11400
H4879       H  0.39348637  0.12567295  0.70559220     0.07700
C4880       C  0.42712043  0.13008059  0.70032404    -0.11400
C4881       C  0.44007731  0.12813598  0.68875759    -0.10700
C4882       C  0.44701166  0.14225724  0.68083981    -0.01600
C4883       C  0.44108628  0.15838788  0.68519416    -0.11800
C4884       C  0.42807024  0.16032706  0.69667534    -0.10200
H4885       H  0.42201694  0.11892281  0.70614479     0.07700
H4886       H  0.44449516  0.11555064  0.68585132     0.11400
H4887       H  0.44623350  0.16955126  0.67941910     0.11100
H4888       H  0.42337795  0.17289240  0.69918640     0.07700
C4889       C  0.33421911  0.20745967  0.78897170    -0.11400
C4890       C  0.33458145  0.20223302  0.80589160     0.05700
C4891       C  0.33671821  0.18495091  0.80938465    -0.10200
C4892       C  0.33879935  0.17331570  0.79637225    -0.11800
C4893       C  0.33917297  0.17874673  0.77965606    -0.01600
C4894       C  0.33673025  0.19584657  0.77599826    -0.10700
C4895       C  0.33390361  0.21478491  0.81983485     0.05800
H4896       H  0.33743872  0.18043711  0.82219091     0.07700
H4897       H  0.34087009  0.16015281  0.79939169     0.11200
H4898       H  0.33691243  0.20020531  0.76311257     0.11400
H4899       H  0.33223399  0.22056270  0.78572466     0.07700
C4900       C  0.34134863  0.23068135  0.81798216    -0.11400
C4901       C  0.34215458  0.24190146  0.83144516    -0.10700
C4902       C  0.33589989  0.23742656  0.84729073    -0.01600
C4903       C  0.32782928  0.22185938  0.84902286    -0.11800
C4904       C  0.32675479  0.21070719  0.83542462    -0.10200
H4905       H  0.34715076  0.23430131  0.80630093     0.07700
H4906       H  0.34802414  0.25398900  0.82944966     0.11400
H4907       H  0.32290880  0.21795374  0.86101908     0.11100
H4908       H  0.32058444  0.19874522  0.83724710     0.07700
C4909       C  0.35315300  0.10082809  0.79717798    -0.11400
C4910       C  0.33749015  0.09282262  0.79733945     0.05700
C4911       C  0.32427253  0.09981142  0.78779146    -0.10200
C4912       C  0.32674849  0.11429954  0.77817138    -0.11800
C4913       C  0.34257151  0.12182686  0.77756752    -0.01600
C4914       C  0.35568674  0.11508717  0.78731851    -0.10700
C4915       C  0.33497486  0.07742415  0.80763541     0.05800
H4916       H  0.31208443  0.09391959  0.78746876     0.07700
H4917       H  0.31641451  0.11927270  0.77081804     0.11200
H4918       H  0.36792829  0.12089243  0.78735812     0.11400
H4919       H  0.36347547  0.09615972  0.80476343     0.07700
C4920       C  0.34803228  0.06562191  0.80985069    -0.11400
C4921       C  0.34604039  0.05174891  0.82042717    -0.10700
C4922       C  0.33083199  0.04917340  0.82870584    -0.01600
C4923       C  0.31758056  0.06057494  0.82605203    -0.11800
C4924       C  0.31966667  0.07462139  0.81574673    -0.10200
H4925       H  0.35985321  0.06713113  0.80348381     0.07700
H4926       H  0.35641398  0.04306644  0.82218073     0.11400
H4927       H  0.30577904  0.05898231  0.83245256     0.11100
H4928       H  0.30943162  0.08354503  0.81458334     0.07700
C4929       C  0.71329638  0.14596686  0.69971184    -0.11400
C4930       C  0.69695254  0.14125517  0.69532994     0.05700
C4931       C  0.69337079  0.13646017  0.67871537    -0.10200
C4932       C  0.70580219  0.13692094  0.66649574    -0.11800
C4933       C  0.72194359  0.14244913  0.67063020    -0.01600
C4934       C  0.72568107  0.14669325  0.68740914    -0.10700
C4935       C  0.68327459  0.14236972  0.70762928     0.05800
H4936       H  0.68080971  0.13274318  0.67513220     0.07700
H4937       H  0.70253571  0.13383912  0.65366878     0.11200
H4938       H  0.73809129  0.15094534  0.69090534     0.11400
H4939       H  0.71627517  0.14974497  0.71245829     0.07700
C4940       C  0.68368633  0.13294185  0.72254285    -0.11400
C4941       C  0.66975803  0.13281842  0.73314783    -0.10700
C4942       C  0.65535185  0.14220917  0.72897372    -0.01600
C4943       C  0.65545449  0.15241032  0.71456462    -0.11800
C4944       C  0.66924204  0.15241584  0.70396010    -0.10200
H4945       H  0.69445644  0.12514157  0.72557483     0.07700
H4946       H  0.66995543  0.12477974  0.74413135     0.11400
H4947       H  0.64467326  0.16008198  0.71126058     0.11100
H4948       H  0.66883939  0.16001497  0.69266380     0.07700
C4949       C  0.80308712  0.23028167  0.64900213    -0.11400
C4950       C  0.80302642  0.21627363  0.63809291     0.05700
C4951       C  0.81705310  0.21347641  0.62786326    -0.10200
C4952       C  0.83110760  0.22372615  0.62925704    -0.11800
C4953       C  0.83150891  0.23695502  0.64092895    -0.01600
C4954       C  0.81723068  0.24053631  0.65040397    -0.10700
C4955       C  0.78919960  0.20374917  0.63843777     0.05800
H4956       H  0.81764612  0.20278817  0.61944316     0.07700
H4957       H  0.84197271  0.22089364  0.62167944     0.11200
H4958       H  0.81732321  0.25070486  0.65948794     0.11400
H4959       H  0.79238787  0.23306160  0.65680569     0.07700
C4960       C  0.78131720  0.19983854  0.65364983    -0.11400
C4961       C  0.76969227  0.18680583  0.65453536    -0.10700
C4962       C  0.76550082  0.17728328  0.64017941    -0.01600
C4963       C  0.77340820  0.18124525  0.62495301    -0.11800
C4964       C  0.78485162  0.19445697  0.62401918    -0.10200
H4965       H  0.78474343  0.20625498  0.66516112     0.07700
H4966       H  0.76485124  0.18378002  0.66676982     0.11400
H4967       H  0.77097180  0.17386934  0.61376047     0.11100
H4968       H  0.79052831  0.19713912  0.61202482     0.07700
C4969       C  0.78608577  0.09627446  0.62958387    -0.11400
C4970       C  0.78378664  0.08460026  0.64262171     0.05700
C4971       C  0.77118078  0.08768369  0.65451604    -0.10200
C4972       C  0.76145041  0.10241737  0.65364090    -0.11800
C4973       C  0.76442465  0.11436294  0.64105962    -0.01600
C4974       C  0.77656333  0.11102642  0.62886923    -0.10700
C4975       C  0.79514207  0.06977680  0.64407572     0.05800
H4976       H  0.76901921  0.07882012  0.66459191     0.07700
H4977       H  0.75215465  0.10484603  0.66318827     0.11200
H4978       H  0.77897365  0.12009340  0.61902359     0.11400
H4979       H  0.79576406  0.09436573  0.62031795     0.07700
C4980       C  0.80007553  0.06096613  0.62962096    -0.11400
C4981       C  0.81196314  0.04805590  0.63064857    -0.10700
C4982       C  0.81919090  0.04355987  0.64617384    -0.01600
C4983       C  0.81393244  0.05202935  0.66073764    -0.11800
C4984       C  0.80202839  0.06502850  0.65969381    -0.10200
H4985       H  0.79482427  0.06416245  0.61744788     0.07700
H4986       H  0.81556937  0.04166021  0.61920569     0.11400
H4987       H  0.81925282  0.04884580  0.67288245     0.11100
H4988       H  0.79861925  0.07172578  0.67102612     0.07700
C4989       C  0.71225728  0.14381927  0.58340787    -0.11400
C4990       C  0.69865884  0.13309676  0.58613451     0.05700
C4991       C  0.69719270  0.12509598  0.60176621    -0.10200
C4992       C  0.70860077  0.12858842  0.61476432    -0.11800
C4993       C  0.72174071  0.14009221  0.61234619    -0.01600
C4994       C  0.72370676  0.14716509  0.59626237    -0.10700
C4995       C  0.68546960  0.13145830  0.57306085     0.05800
H4996       H  0.68680737  0.11673423  0.60416202     0.07700
H4997       H  0.70668669  0.12264989  0.62677747     0.11200
H4998       H  0.73405486  0.15540574  0.59347706     0.11400
H4999       H  0.71389886  0.14982836  0.57132364     0.07700
C5000       C  0.67905985  0.14603531  0.56533158    -0.11400
C5001       C  0.66661091  0.14493671  0.55304044    -0.10700
C5002       C  0.66028544  0.12920587  0.54807587    -0.01600
C5003       C  0.66669183  0.11454241  0.55578537    -0.11800
C5004       C  0.67912100  0.11567293  0.56827152    -0.10200
H5005       H  0.68356365  0.15837235  0.56897118     0.07700
H5006       H  0.66194327  0.15648104  0.54742408     0.11400
H5007       H  0.66205238  0.10223550  0.55223672     0.11100
H5008       H  0.68391103  0.10425016  0.57403585     0.07700
C5009       C  0.12155196  0.71199834  0.30722097    -0.11400
C5010       C  0.12681031  0.69550334  0.31089719     0.05700
C5011       C  0.13083672  0.69132181  0.32766360    -0.10200
C5012       C  0.12905278  0.70320745  0.34052112    -0.11800
C5013       C  0.12304158  0.71940638  0.33687029    -0.01600
C5014       C  0.11969204  0.72381115  0.32006385    -0.10700
C5015       C  0.12723250  0.68242930  0.29753760     0.05800
H5016       H  0.13469123  0.67864690  0.33097488     0.07700
H5017       H  0.13155824  0.69948742  0.35338496     0.11200
H5018       H  0.11533110  0.73636299  0.31688139     0.11400
H5019       H  0.11867600  0.71572420  0.29443770     0.07700
C5020       C  0.11451588  0.68163067  0.28517372    -0.11400
C5021       C  0.11374123  0.66799997  0.27402206    -0.10700
C5022       C  0.12553558  0.65494943  0.27524581    -0.01600
C5023       C  0.13879267  0.65624073  0.28680972    -0.11800
C5024       C  0.13970214  0.66989605  0.29777754    -0.10200
H5025       H  0.10464754  0.69102381  0.28471075     0.07700
H5026       H  0.10337598  0.66710372  0.26521619     0.11400
H5027       H  0.14810412  0.64630314  0.28777018     0.11100
H5028       H  0.14988550  0.67036329  0.30681493     0.07700
C5029       C  0.13861028  0.68161899  0.44528772    -0.11400
C5030       C  0.12355797  0.68934191  0.44008955     0.05700
C5031       C  0.10900978  0.68638995  0.44950601    -0.10200
C5032       C  0.10930916  0.67534058  0.46318129    -0.11800
C5033       C  0.12420655  0.66708944  0.46793283    -0.01600
C5034       C  0.13893723  0.67066146  0.45907564    -0.10700
C5035       C  0.12275148  0.69973729  0.42448352     0.05800
H5036       H  0.09728758  0.69248719  0.44619146     0.07700
H5037       H  0.09779898  0.67310145  0.46990426     0.11200
H5038       H  0.15064645  0.66457648  0.46246645     0.11400
H5039       H  0.15003076  0.68352337  0.43832752     0.07700
C5040       C  0.13599867  0.71041290  0.41983965    -0.11400
C5041       C  0.13483547  0.72030540  0.40525371    -0.10700
C5042       C  0.12036829  0.71979888  0.39518688    -0.01600
C5043       C  0.10737427  0.70884896  0.39955763    -0.11800
C5044       C  0.10857876  0.69888570  0.41394000    -0.10200
H5045       H  0.14705093  0.71148265  0.42771089     0.07700
H5046       H  0.14488395  0.72885964  0.40225121     0.11400
H5047       H  0.09612141  0.70818611  0.39190589     0.11100
H5048       H  0.09834560  0.69049313  0.41679078     0.07700
C5049       C  0.17821754  0.76497486  0.37445703    -0.11400
C5050       C  0.18009092  0.77959548  0.36464640     0.05700
C5051       C  0.16673627  0.78479426  0.35430412    -0.10200
C5052       C  0.15162146  0.77606921  0.35430347    -0.11800
C5053       C  0.14946385  0.76186223  0.36459598    -0.01600
C5054       C  0.16307105  0.75607776  0.37429411    -0.10700
C5055       C  0.19530662  0.79024355  0.36599447     0.05800
H5056       H  0.16773683  0.79604654  0.34669485     0.07700
H5057       H  0.14148990  0.78062852  0.34638839     0.11200
H5058       H  0.16179737  0.74511975  0.38224958     0.11400
H5059       H  0.18837605  0.76060570  0.38244413     0.07700
C5060       C  0.20183336  0.79457503  0.38183027    -0.11400
C5061       C  0.21477656  0.80630989  0.38328703    -0.10700
C5062       C  0.22158569  0.81391976  0.36892510    -0.01600
C5063       C  0.21546218  0.80911540  0.35305181    -0.11800
C5064       C  0.20244968  0.79743132  0.35160264    -0.10200
H5065       H  0.19641400  0.78945876  0.39314966     0.07700
H5066       H  0.21899701  0.80987135  0.39573301     0.11400
H5067       H  0.22066593  0.81442302  0.34172732     0.11100
H5068       H  0.19778561  0.79417957  0.33921789     0.07700
C5069       C  0.07091892  0.78623832  0.37896209    -0.11400
C5070       C  0.05818235  0.78508185  0.36680212     0.05700
C5071       C  0.05941069  0.77272148  0.35425431    -0.10200
C5072       C  0.07335395  0.76215380  0.35344788    -0.11800
C5073       C  0.08647331  0.76362247  0.36527930    -0.01600
C5074       C  0.08482005  0.77556532  0.37825958    -0.10700
C5075       C  0.04405227  0.79721220  0.36662703     0.05800
H5076       H  0.04954374  0.77120646  0.34497938     0.07700
H5077       H  0.07342939  0.75290570  0.34355938     0.11200
H5078       H  0.09453403  0.77683341  0.38773802     0.11400
H5079       H  0.07039837  0.79570514  0.38874283     0.07700
C5080       C  0.03672046  0.80286910  0.38162623    -0.11400
C5081       C  0.02375141  0.81477059  0.38120717    -0.10700
C5082       C  0.01790581  0.82114665  0.36577661    -0.01600
C5083       C  0.02514652  0.81533121  0.35083213    -0.11800
C5084       C  0.03809315  0.80357583  0.35125553    -0.10200
H5085       H  0.04095965  0.79805700  0.39365626     0.07700
H5086       H  0.01839748  0.81904431  0.39292401     0.11400
H5087       H  0.02099725  0.82005352  0.33873223     0.11100
H5088       H  0.04369868  0.79976635  0.33950348     0.07700
loop_ 
_geom_bond_atom_site_label_1 
_geom_bond_atom_site_label_2 
_geom_bond_distance 
_geom_bond_site_symmetry_2 
_ccdc_geom_bond_type 
C1            C2   1.537       .  S
C1            C7   1.533       .  S
C1            C5   1.527       .  S
C1         C5073   1.521       .  S
C2            H9   1.080       .  S
C2            C3   1.365       .  D
C3            C4   1.545       .  S
C3         C5013   1.481       .  S
C4            C8   1.545       .  S
C4            C6   1.546       .  S
C4           H10   1.110       .  S
C5           H11   1.087       .  S
C5            C6   1.362       .  D
C6         C5042   1.481       .  S
C7           H12   1.086       .  S
C7            C8   1.368       .  D
C8         C5053   1.487       .  S
C13          C14   1.529       .  S
C13          C19   1.537       .  S
C13          C17   1.536       .  S
C13        C4962   1.525       .  S
C14          H21   1.087       .  S
C14          C15   1.362       .  D
C15          C16   1.537       .  S
C15        C4973   1.476       .  S
C16          C20   1.543       .  S
C16          C18   1.548       .  S
C16          H22   1.108       .  S
C17          H23   1.084       .  S
C17          C18   1.373       .  D
C18        C4993   1.497       .  S
C19          H24   1.083       .  S
C19          C20   1.364       .  D
C20        C4933   1.481       .  S
C25          C26   1.543       .  S
C25          C31   1.534       .  S
C25          C29   1.535       .  S
C25        C4873   1.524       .  S
C26          H33   1.083       .  S
C26          C27   1.370       .  D
C27          C28   1.541       .  S
C27        C4893   1.474       .  S
C28          C32   1.536       .  S
C28          C30   1.535       .  S
C28          H34   1.111       .  S
C29          H35   1.087       .  S
C29          C30   1.363       .  D
C30        C4913   1.479       .  S
C31          H36   1.087       .  S
C31          C32   1.361       .  D
C32        C4853   1.471       .  S
C37          C38   1.539       .  S
C37          C43   1.537       .  S
C37          C41   1.535       .  S
C37        C4833   1.524       .  S
C38          H45   1.080       .  S
C38          C39   1.363       .  D
C39          C40   1.536       .  S
C39        C4793   1.477       .  S
C40          C44   1.529       .  S
C40          C42   1.538       .  S
C40          H46   1.110       .  S
C41          H47   1.086       .  S
C41          C42   1.369       .  D
C42        C4822   1.483       .  S
C43          H48   1.087       .  S
C43          C44   1.362       .  D
C44        C4773   1.466       .  S
C49          C50   1.544       .  S
C49          C55   1.536       .  S
C49          C53   1.540       .  S
C49        C4753   1.532       .  S
C50          H57   1.081       .  S
C50          C51   1.365       .  D
C51          C52   1.535       .  S
C51        C4722   1.478       .  S
C52          C56   1.537       .  S
C52          C54   1.539       .  S
C52          H58   1.110       .  S
C53          H59   1.086       .  S
C53          C54   1.371       .  D
C54        C4733   1.489       .  S
C55          H60   1.087       .  S
C55          C56   1.363       .  D
C56        C4693   1.476       .  S
C61          C62   1.543       .  S
C61          C67   1.532       .  S
C61          C65   1.536       .  S
C61        C4633   1.524       .  S
C62          H69   1.081       .  S
C62          C63   1.368       .  D
C63          C64   1.538       .  S
C63        C4653   1.480       .  S
C64          C68   1.535       .  S
C64          C66   1.536       .  S
C64          H70   1.109       .  S
C65          H71   1.086       .  S
C65          C66   1.367       .  D
C66        C4682   1.483       .  S
C67          H72   1.087       .  S
C67          C68   1.362       .  D
C68        C4613   1.476       .  S
C73          C74   1.533       .  S
C73          C79   1.531       .  S
C73          C77   1.524       .  S
C73        C4782   1.520       .  S
C74          H81   1.082       .  S
C74          C75   1.369       .  D
C75          C76   1.551       .  S
C75        C4562   1.488       .  S
C76          C80   1.549       .  S
C76          C78   1.552       .  S
C76          H82   1.109       .  S
C77          H83   1.086       .  S
C77          C78   1.366       .  D
C78        C4582   1.494       .  S
C79          H84   1.086       .  S
C79          C80   1.363       .  D
C80        C4593   1.487       .  S
C85          C86   1.536       .  S
C85          C91   1.535       .  S
C85          C89   1.541       .  S
C85        C4493   1.533       .  S
C86          H93   1.082       .  S
C86          C87   1.374       .  D
C87          C88   1.550       .  S
C87        C4542   1.506       .  S
C88          C92   1.535       .  S
C88          C90   1.540       .  S
C88          H94   1.105       .  S
C89          H95   1.079       .  S
C89          C90   1.369       .  D
C90        C4513   1.487       .  S
C91          H96   1.086       .  S
C91          C92   1.362       .  D
C92        C4473   1.477       .  S
C97          C98   1.543       .  S
C97         C103   1.534       .  S
C97         C101   1.532       .  S
C97        C4453   1.527       .  S
C98         H105   1.081       .  S
C98          C99   1.370       .  D
C99         C100   1.541       .  S
C99        C4433   1.487       .  S
C100        C104   1.540       .  S
C100        C102   1.537       .  S
C100        H106   1.110       .  S
C101        H107   1.087       .  S
C101        C102   1.362       .  D
C102       C4413   1.472       .  S
C103        H108   1.086       .  S
C103        C104   1.366       .  D
C104       C4942   1.482       .  S
C109        C110   1.537       .  S
C109        C115   1.534       .  S
C109        C113   1.534       .  S
C109       C4402   1.522       .  S
C110        H117   1.080       .  S
C110        C111   1.361       .  D
C111        C112   1.536       .  S
C111       C4353   1.475       .  S
C112        C116   1.540       .  S
C112        C114   1.542       .  S
C112        H118   1.110       .  S
C113        H119   1.086       .  S
C113        C114   1.368       .  D
C114       C4333   1.482       .  S
C115        H120   1.087       .  S
C115        C116   1.365       .  D
C116       C4373   1.480       .  S
C121        C122   1.542       .  S
C121        C127   1.528       .  S
C121        C125   1.536       .  S
C121       C4313   1.529       .  S
C122        H129   1.078       .  S
C122        C123   1.372       .  D
C123        C124   1.545       .  S
C123       C4273   1.497       .  S
C124        C128   1.542       .  S
C124        C126   1.539       .  S
C124        H130   1.108       .  S
C125        H131   1.086       .  S
C125        C126   1.369       .  D
C126       C4253   1.482       .  S
C127        H132   1.087       .  S
C127        C128   1.362       .  D
C128       C4302   1.480       .  S
C133        C134   1.544       .  S
C133        C139   1.530       .  S
C133        C137   1.533       .  S
C133       C4233   1.526       .  S
C134        H141   1.079       .  S
C134        C135   1.373       .  D
C135        C136   1.544       .  S
C135       C4222   1.493       .  S
C136        C140   1.540       .  S
C136        C138   1.538       .  S
C136        H142   1.109       .  S
C137        H143   1.087       .  S
C137        C138   1.362       .  D
C138       C4202   1.473       .  S
C139        H144   1.087       .  S
C139        C140   1.362       .  D
C140       C4702   1.476       .  S
C145        C146   1.547       .  S
C145        C151   1.533       .  S
C145        C149   1.541       .  S
C145       C4153   1.532       .  S
C146        H153   1.081       .  S
C146        C147   1.369       .  D
C147        C148   1.531       .  S
C147       C4113   1.482       .  S
C148        C152   1.533       .  S
C148        C150   1.537       .  S
C148        H154   1.109       .  S
C149        H155   1.086       .  S
C149        C150   1.372       .  D
C150       C4173   1.485       .  S
C151        H156   1.086       .  S
C151        C152   1.362       .  D
C152       C4133   1.478       .  S
C157        C158   1.543       .  S
C157        C163   1.539       .  S
C157        C161   1.535       .  S
C157       C4073   1.529       .  S
C158        H165   1.082       .  S
C158        C159   1.367       .  D
C159        C160   1.540       .  S
C159       C4033   1.484       .  S
C160        C164   1.534       .  S
C160        C162   1.541       .  S
C160        H166   1.110       .  S
C161        H167   1.086       .  S
C161        C162   1.369       .  D
C162       C4102   1.487       .  S
C163        H168   1.086       .  S
C163        C164   1.363       .  D
C164       C4053   1.476       .  S
C169        C170   1.543       .  S
C169        C175   1.528       .  S
C169        C173   1.533       .  S
C169       C3993   1.527       .  S
C170        H177   1.080       .  S
C170        C171   1.371       .  D
C171        C172   1.544       .  S
C171       C3953   1.493       .  S
C172        C176   1.540       .  S
C172        C174   1.544       .  S
C172        H178   1.107       .  S
C173        H179   1.085       .  S
C173        C174   1.369       .  D
C174       C4013   1.491       .  S
C175        H180   1.087       .  S
C175        C176   1.362       .  D
C176       C3973   1.479       .  S
C181        C182   1.546       .  S
C181        C187   1.531       .  S
C181        C185   1.534       .  S
C181       C3913   1.527       .  S
C182        H189   1.083       .  S
C182        C183   1.371       .  D
C183        C184   1.540       .  S
C183       C3873   1.482       .  S
C184        C188   1.539       .  S
C184        C186   1.538       .  S
C184        H190   1.111       .  S
C185        H191   1.086       .  S
C185        C186   1.366       .  D
C186       C3942   1.481       .  S
C187        H192   1.087       .  S
C187        C188   1.360       .  D
C188       C3893   1.474       .  S
C193        C194   1.535       .  S
C193        C199   1.532       .  S
C193        C197   1.543       .  S
C193       C3833   1.527       .  S
C194        H201   1.086       .  S
C194        C195   1.366       .  D
C195        C196   1.540       .  S
C195       C3813   1.484       .  S
C196        C200   1.539       .  S
C196        C198   1.542       .  S
C196        H202   1.109       .  S
C197        H203   1.081       .  S
C197        C198   1.369       .  D
C198       C3793   1.488       .  S
C199        H204   1.086       .  S
C199        C200   1.365       .  D
C200       C3853   1.484       .  S
C205        C206   1.542       .  S
C205        C211   1.532       .  S
C205        C209   1.537       .  S
C205       C3753   1.527       .  S
C206        H213   1.082       .  S
C206        C207   1.364       .  D
C207        C208   1.531       .  S
C207       C3742   1.476       .  S
C208        C212   1.541       .  S
C208        C210   1.543       .  S
C208        H214   1.107       .  S
C209        H215   1.085       .  S
C209        C210   1.371       .  D
C210       C3713   1.489       .  S
C211        H216   1.085       .  S
C211        C212   1.367       .  D
C212       C3773   1.489       .  S
C217        C218   1.537       .  S
C217        C223   1.528       .  S
C217        C221   1.532       .  S
C217       C3673   1.530       .  S
C218        H225   1.080       .  S
C218        C219   1.370       .  D
C219        C220   1.549       .  S
C219       C3693   1.493       .  S
C220        C224   1.542       .  S
C220        C222   1.552       .  S
C220        H226   1.109       .  S
C221        H227   1.085       .  S
C221        C222   1.372       .  D
C222       C3882   1.501       .  S
C223        H228   1.087       .  S
C223        C224   1.361       .  D
C224       C4062   1.476       .  S
C229        C230   1.545       .  S
C229        C235   1.534       .  S
C229        C233   1.535       .  S
C229       C3653   1.534       .  S
C230        H237   1.079       .  S
C230        C231   1.371       .  D
C231        C232   1.543       .  S
C231       C3633   1.498       .  S
C232        C236   1.543       .  S
C232        C234   1.540       .  S
C232        H238   1.109       .  S
C233        H239   1.086       .  S
C233        C234   1.368       .  D
C234       C3613   1.484       .  S
C235        H240   1.086       .  S
C235        C236   1.365       .  D
C236       C3962   1.483       .  S
C241        C242   1.543       .  S
C241        C247   1.529       .  S
C241        C245   1.535       .  S
C241       C3573   1.526       .  S
C242        H249   1.079       .  S
C242        C243   1.369       .  D
C243        C244   1.543       .  S
C243       C3593   1.489       .  S
C244        C248   1.538       .  S
C244        C246   1.540       .  S
C244        H250   1.110       .  S
C245        H251   1.086       .  S
C245        C246   1.366       .  D
C246       C4042   1.474       .  S
C247        H252   1.087       .  S
C247        C248   1.360       .  D
C248       C3733   1.472       .  S
C253        C254   1.530       .  S
C253        C259   1.536       .  S
C253        C257   1.541       .  S
C253       C3533   1.525       .  S
C254        H261   1.085       .  S
C254        C255   1.369       .  D
C255        C256   1.548       .  S
C255       C3553   1.493       .  S
C256        C260   1.541       .  S
C256        C258   1.533       .  S
C256        H262   1.109       .  S
C257        H263   1.083       .  S
C257        C258   1.362       .  D
C258       C4122   1.470       .  S
C259        H264   1.086       .  S
C259        C260   1.366       .  D
C260       C3513   1.476       .  S
C265        C266   1.540       .  S
C265        C271   1.531       .  S
C265        C269   1.534       .  S
C265       C3722   1.527       .  S
C266        H273   1.081       .  S
C266        C267   1.368       .  D
C267        C268   1.541       .  S
C267       C3902   1.478       .  S
C268        C272   1.541       .  S
C268        C270   1.539       .  S
C268        H274   1.111       .  S
C269        H275   1.087       .  S
C269        C270   1.367       .  D
C270       C3473   1.481       .  S
C271        H276   1.087       .  S
C271        C272   1.364       .  D
C272       C3493   1.479       .  S
O277       Cu285   2.020       .  S
O277        C287   1.279       .  A
O278       Cu285   2.008       .  S
O278        C288   1.278       .  A
O279       Cu285   2.010       .  S
O279        C289   1.279       .  A
O280       Cu285   2.004       .  S
O280        C290   1.278       .  A
O281       Cu286   2.003       .  S
O281        C290   1.278       .  A
O282       Cu286   2.000       .  S
O282        C289   1.277       .  A
O283       Cu286   1.999       .  S
O283        C288   1.277       .  A
O284       Cu286   2.000       .  S
O284        C287   1.278       .  A
Cu285      Cu286   2.372       .  S
C287       C3413   1.483       .  S
C288       C3433   1.472       .  S
C289       C3453   1.478       .  S
C290       C3762   1.478       .  S
O291       Cu299   2.007       .  S
O291        C301   1.279       .  A
O292       Cu299   2.010       .  S
O292        C302   1.279       .  A
O293       Cu299   2.001       .  S
O293        C303   1.277       .  A
O294       Cu299   2.003       .  S
O294        C304   1.277       .  A
O295       Cu300   2.009       .  S
O295        C304   1.279       .  A
O296       Cu300   2.006       .  S
O296        C303   1.278       .  A
O297       Cu300   2.002       .  S
O297        C302   1.277       .  A
O298       Cu300   2.001       .  S
O298        C301   1.277       .  A
Cu299      Cu300   2.372       .  S
C301       C3582   1.477       .  S
C302       C3393   1.477       .  S
C303       C3442   1.477       .  S
C304       C4002   1.479       .  S
O305       Cu313   2.031       .  S
O305        C315   1.281       .  A
O306       Cu313   2.029       .  S
O306        C316   1.280       .  A
O307       Cu313   2.016       .  S
O307        C317   1.279       .  A
O308       Cu313   2.016       .  S
O308        C318   1.278       .  A
O309       Cu314   2.001       .  S
O309        C318   1.278       .  A
O310       Cu314   2.002       .  S
O310        C317   1.278       .  A
O311       Cu314   2.002       .  S
O311        C316   1.278       .  A
O312       Cu314   2.001       .  S
O312        C315   1.277       .  A
Cu313      Cu314   2.370       .  S
C315       C4502   1.486       .  S
C316       C3353   1.485       .  S
C317       C3373   1.480       .  S
C318       C5002   1.481       .  S
O319       Cu327   1.995       .  S
O319        C329   1.277       .  A
O320       Cu327   1.994       .  S
O320        C330   1.276       .  A
O321       Cu327   2.021       .  S
O321        C331   1.280       .  A
O322       Cu327   2.021       .  S
O322        C332   1.280       .  A
O323       Cu328   2.010       .  S
O323        C332   1.279       .  A
O324       Cu328   2.003       .  S
O324        C331   1.277       .  A
O325       Cu328   2.017       .  S
O325        C330   1.279       .  A
O326       Cu328   2.026       .  S
O326        C329   1.280       .  A
Cu327      Cu328   2.370       .  S
C329       C3333   1.482       .  S
C330       C4462   1.478       .  S
C331       C4882   1.483       .  S
C332       C3362   1.485       .  S
O333       Cu341   2.015       .  S
O333        C343   1.279       .  A
O334       Cu341   2.010       .  S
O334        C344   1.279       .  A
O335       Cu341   2.015       .  S
O335        C345   1.279       .  A
O336       Cu341   2.010       .  S
O336        C346   1.278       .  A
O337       Cu342   1.997       .  S
O337        C346   1.277       .  A
O338       Cu342   2.010       .  S
O338        C345   1.278       .  A
O339       Cu342   1.996       .  S
O339        C344   1.276       .  A
O340       Cu342   1.987       .  S
O340        C343   1.276       .  A
Cu341      Cu342   2.372       .  S
C343       C4842   1.476       .  S
C344       C3313   1.475       .  S
C345       C3293   1.482       .  S
C346       C4362   1.475       .  S
O347       Cu355   2.012       .  S
O347        C357   1.279       .  A
O348       Cu355   2.014       .  S
O348        C358   1.278       .  A
O349       Cu355   2.013       .  S
O349        C359   1.279       .  A
O350       Cu355   2.019       .  S
O350        C360   1.279       .  A
O351       Cu356   2.030       .  S
O351        C360   1.281       .  A
O352       Cu356   2.023       .  S
O352        C359   1.280       .  A
O353       Cu356   2.016       .  S
O353        C358   1.279       .  A
O354       Cu356   2.017       .  S
O354        C357   1.279       .  A
Cu355      Cu356   2.368       .  S
C357       C3302   1.484       .  S
C358       C5033   1.485       .  S
C359       C4602   1.488       .  S
C360       C3273   1.492       .  S
O361       Cu369   1.991       .  S
O361        C371   1.276       .  A
O362       Cu369   1.994       .  S
O362        C372   1.276       .  A
O363       Cu369   2.009       .  S
O363        C373   1.278       .  A
O364       Cu369   2.012       .  S
O364        C374   1.279       .  A
O365       Cu370   1.996       .  S
O365        C374   1.276       .  A
O366       Cu370   1.998       .  S
O366        C373   1.277       .  A
O367       Cu370   2.026       .  S
O367        C372   1.281       .  A
O368       Cu370   2.032       .  S
O368        C371   1.281       .  A
Cu369      Cu370   2.371       .  S
C371       C3922   1.484       .  S
C372       C3253   1.480       .  S
C373       C3233   1.473       .  S
C374       C3542   1.478       .  S
O375       Cu383   1.992       .  S
O375        C385   1.276       .  A
O376       Cu383   1.991       .  S
O376        C386   1.276       .  A
O377       Cu383   2.010       .  S
O377        C387   1.279       .  A
O378       Cu383   2.012       .  S
O378        C388   1.278       .  A
O379       Cu384   2.026       .  S
O379        C388   1.280       .  A
O380       Cu384   2.025       .  S
O380        C387   1.279       .  A
O381       Cu384   2.019       .  S
O381        C386   1.279       .  A
O382       Cu384   2.016       .  S
O382        C385   1.279       .  A
Cu383      Cu384   2.370       .  S
C385       C3242   1.477       .  S
C386       C3842   1.480       .  S
C387       C3482   1.485       .  S
C388       C3222   1.487       .  S
O389       Cu397   1.999       .  S
O389        C399   1.278       .  A
O390       Cu397   1.998       .  S
O390        C400   1.276       .  A
O391       Cu397   2.020       .  S
O391        C401   1.279       .  A
O392       Cu397   2.020       .  S
O392        C402   1.280       .  A
O393       Cu398   1.997       .  S
O393        C402   1.277       .  A
O394       Cu398   1.996       .  S
O394        C401   1.277       .  A
O395       Cu398   2.010       .  S
O395        C400   1.279       .  A
O396       Cu398   2.007       .  S
O396        C399   1.278       .  A
Cu397      Cu398   2.372       .  S
C399       C4642   1.477       .  S
C400       C3173   1.477       .  S
C401       C3193   1.476       .  S
C402       C4242   1.481       .  S
O403       Cu411   2.013       .  S
O403        C413   1.279       .  A
O404       Cu411   2.016       .  S
O404        C414   1.279       .  A
O405       Cu411   2.014       .  S
O405        C415   1.279       .  A
O406       Cu411   2.017       .  S
O406        C416   1.278       .  A
O407       Cu412   2.000       .  S
O407        C416   1.278       .  A
O408       Cu412   2.000       .  S
O408        C415   1.277       .  A
O409       Cu412   2.014       .  S
O409        C414   1.279       .  A
O410       Cu412   2.012       .  S
O410        C413   1.279       .  A
Cu411      Cu412   2.370       .  S
C413       C4762   1.483       .  S
C414       C3153   1.484       .  S
C415       C3182   1.477       .  S
C416       C4282   1.478       .  S
O417       Cu425   2.014       .  S
O417        C427   1.279       .  A
O418       Cu425   2.011       .  S
O418        C428   1.278       .  A
O419       Cu425   2.023       .  S
O419        C429   1.280       .  A
O420       Cu425   2.018       .  S
O420        C430   1.279       .  A
O421       Cu426   2.004       .  S
O421        C430   1.278       .  A
O422       Cu426   2.008       .  S
O422        C429   1.278       .  A
O423       Cu426   2.017       .  S
O423        C428   1.279       .  A
O424       Cu426   2.018       .  S
O424        C427   1.279       .  A
Cu425      Cu426   2.369       .  S
C427       C4162   1.485       .  S
C428       C3113   1.483       .  S
C429       C3133   1.483       .  S
C430       C3682   1.482       .  S
O431       Cu439   2.015       .  S
O431        C441   1.279       .  A
O432       Cu439   2.023       .  S
O432        C442   1.279       .  A
O433       Cu439   2.022       .  S
O433        C443   1.280       .  A
O434       Cu439   2.023       .  S
O434        C444   1.279       .  A
O435       Cu440   2.009       .  S
O435        C444   1.278       .  A
O436       Cu440   2.005       .  S
O436        C443   1.277       .  A
O437       Cu440   2.000       .  S
O437        C442   1.278       .  A
O438       Cu440   2.003       .  S
O438        C441   1.277       .  A
Cu439      Cu440   2.370       .  S
C441       C4082   1.481       .  S
C442       C3093   1.481       .  S
C443       C3122   1.482       .  S
C444       C3642   1.479       .  S
C445        C446   1.536       .  S
C445        C451   1.528       .  S
C445        C449   1.533       .  S
C445       C3073   1.525       .  S
C446        H453   1.080       .  S
C446        C447   1.367       .  D
C447        C448   1.544       .  S
C447       C3033   1.485       .  S
C448        C452   1.545       .  S
C448        C450   1.544       .  S
C448        H454   1.109       .  S
C449        H455   1.086       .  S
C449        C450   1.369       .  D
C450       C3053   1.488       .  S
C451        H456   1.087       .  S
C451        C452   1.364       .  D
C452       C4482   1.486       .  S
C457        C458   1.532       .  S
C457        C463   1.531       .  S
C457        C461   1.537       .  S
C457       C3013   1.525       .  S
C458        H465   1.087       .  S
C458        C459   1.359       .  D
C459        C460   1.538       .  S
C459       C3822   1.471       .  S
C460        C464   1.549       .  S
C460        C462   1.544       .  S
C460        H466   1.109       .  S
C461        H467   1.082       .  S
C461        C462   1.369       .  D
C462       C2993   1.481       .  S
C463        H468   1.085       .  S
C463        C464   1.370       .  D
C464       C4713   1.496       .  S
O469       Cu477   1.991   1_565  S
O469        C479   1.276       .  A
O470       Cu477   1.990       .  S
O470        C480   1.276       .  A
O471       Cu477   1.983   1_565  S
O471        C481   1.276       .  A
O472       Cu477   1.984       .  S
O472        C482   1.276       .  A
O473       Cu478   2.012       .  S
O473        C482   1.278       .  A
O474       Cu478   2.026   1_565  S
O474        C481   1.280       .  A
O475       Cu478   2.031       .  S
O475        C480   1.281       .  A
O476       Cu478   2.028   1_565  S
O476        C479   1.280       .  A
Cu477      Cu478   2.371       .  S
C479       C2982   1.480       .  S
C480       C4442   1.481       .  S
C481       C3933   1.477       .  S
C482       C2953   1.472       .  S
O483       Cu491   2.022       .  S
O483        C493   1.279       .  A
O484       Cu491   2.022   1_556  S
O484        C494   1.280       .  A
O485       Cu491   2.002       .  S
O485        C495   1.277       .  A
O486       Cu491   2.005   1_556  S
O486        C496   1.278       .  A
O487       Cu492   2.013   1_556  S
O487        C496   1.278       .  A
O488       Cu492   2.023       .  S
O488        C495   1.280       .  A
O489       Cu492   2.011   1_556  S
O489        C494   1.278       .  A
O490       Cu492   2.000       .  S
O490        C493   1.277       .  A
Cu491      Cu492   2.371       .  S
C493       C2942   1.480       .  S
C494       C3702   1.483       .  S
C495       C4742   1.480       .  S
C496       C2973   1.480       .  S
C497        C498   1.542       .  S
C497        C503   1.531       .  S
C497        C501   1.534       .  S
C497       C2913   1.529       .  S
C498        H505   1.081       .  S
C498        C499   1.372       .  D
C499        C500   1.545       .  S
C499       C4422   1.491       .  S
C500        C504   1.543       .  S
C500        C502   1.541       .  S
C500        H506   1.109       .  S
C501        H507   1.086       .  S
C501        C502   1.365       .  D
C502       C2893   1.483       .  S
C503        H508   1.086       .  S
C503        C504   1.366       .  D
C504       C3622   1.489       .  S
O509       Cu517   1.997   1_554  S
O509        C519   1.277       .  A
O510       Cu517   1.997       .  S
O510        C520   1.277       .  A
O511       Cu517   2.003   1_554  S
O511        C521   1.277       .  A
O512       Cu517   2.002       .  S
O512        C522   1.278       .  A
O513       Cu518   2.027       .  S
O513        C522   1.280       .  A
O514       Cu518   2.027   1_554  S
O514        C521   1.280       .  A
O515       Cu518   1.996       .  S
O515        C520   1.276       .  A
O516       Cu518   1.996   1_554  S
O516        C519   1.276       .  A
Cu517      Cu518   2.371       .  S
C519       C2873   1.468       .  S
C520       C2962   1.468       .  S
C521       C2853   1.481       .  S
C522       C2902   1.484       .  S
O523       Cu531   2.009       .  S
O523        C533   1.279       .  A
O524       Cu531   2.008   1_565  S
O524        C534   1.278       .  A
O525       Cu531   1.992       .  S
O525        C535   1.276       .  A
O526       Cu531   1.998   1_565  S
O526        C536   1.276       .  A
O527       Cu532   2.021   1_565  S
O527        C536   1.280       .  A
O528       Cu532   2.032       .  S
O528        C535   1.281       .  A
O529       Cu532   2.013   1_565  S
O529        C534   1.278       .  A
O530       Cu532   2.016       .  S
O530        C533   1.279       .  A
Cu531      Cu532   2.371       .  S
C533       C2862   1.484       .  S
C534       C3002   1.476       .  S
C535       C3062   1.484       .  S
C536       C2933   1.481       .  S
C537        C538   1.541       .  S
C537        C543   1.535       .  S
C537        C541   1.535       .  S
C537       C2833   1.525       .  S
C538        H545   1.081       .  S
C538        C539   1.368       .  D
C539        C540   1.539       .  S
C539       C2882   1.484       .  S
C540        C544   1.534       .  S
C540        C542   1.535       .  S
C540        H546   1.109       .  S
C541        H547   1.086       .  S
C541        C542   1.365       .  D
C542       C3042   1.479       .  S
C543        H548   1.086       .  S
C543        C544   1.364       .  D
C544       C4622   1.470       .  S
O549       Cu557   1.986       .  S
O549        C559   1.276       .  A
O550       Cu557   1.987   1_554  S
O550        C560   1.276       .  A
O551       Cu557   1.986       .  S
O551        C561   1.276       .  A
O552       Cu557   1.986   1_554  S
O552        C562   1.276       .  A
O553       Cu558   2.022   1_554  S
O553        C562   1.279       .  A
O554       Cu558   2.028       .  S
O554        C561   1.280       .  A
O555       Cu558   2.028   1_554  S
O555        C560   1.281       .  A
O556       Cu558   2.027       .  S
O556        C559   1.280       .  A
Cu557      Cu558   2.371       .  S
C559       C2813   1.476       .  S
C560       C4322   1.481       .  S
C561       C4182   1.476       .  S
C562       C2802   1.478       .  S
O563       Cu571   1.999   1_565  S
O563        C573   1.277       .  A
O564       Cu571   1.995       .  S
O564        C574   1.277       .  A
O565       Cu571   2.003   1_565  S
O565        C575   1.279       .  A
O566       Cu571   2.007       .  S
O566        C576   1.278       .  A
O567       Cu572   2.004       .  S
O567        C576   1.278       .  A
O568       Cu572   2.005   1_565  S
O568        C575   1.277       .  A
O569       Cu572   2.011       .  S
O569        C574   1.278       .  A
O570       Cu572   2.020   1_565  S
O570        C573   1.280       .  A
Cu571      Cu572   2.372       .  S
C573       C3562   1.478       .  S
C574       C2773   1.474       .  S
C575       C2822   1.478       .  S
C576       C4922   1.474       .  S
C577        C578   1.543       .  S
C577        C583   1.534       .  S
C577        C581   1.538       .  S
C577       C2713   1.532       .  S
C578        H585   1.081       .  S
C578        C579   1.369       .  D
C579        C580   1.542       .  S
C579       C4293   1.484       .  S
C580        C584   1.537       .  S
C580        C582   1.542       .  S
C580        H586   1.110       .  S
C581        H587   1.086       .  S
C581        C582   1.369       .  D
C582       C2762   1.489       .  S
C583        H588   1.087       .  S
C583        C584   1.364       .  D
C584       C2733   1.477       .  S
O589       Cu597   2.036       .  S
O589        C599   1.281       .  A
O590       Cu597   2.029   1_545  S
O590        C600   1.281       .  A
O591       Cu597   2.018       .  S
O591        C601   1.278       .  A
O592       Cu597   2.021   1_545  S
O592        C602   1.280       .  A
O593       Cu598   1.994   1_545  S
O593        C602   1.277       .  A
O594       Cu598   1.993       .  S
O594        C601   1.277       .  A
O595       Cu598   1.999   1_545  S
O595        C600   1.277       .  A
O596       Cu598   1.994       .  S
O596        C599   1.276       .  A
Cu597      Cu598   2.370       .  S
C599       C2753   1.479       .  S
C600       C2673   1.483       .  S
C601       C2793   1.476       .  S
C602       C2702   1.480       .  S
O603       Cu611   2.002       .  S
O603        C613   1.278       .  A
O604       Cu611   2.003   1_556  S
O604        C614   1.278       .  A
O605       Cu611   2.005       .  S
O605        C615   1.278       .  A
O606       Cu611   1.996   1_556  S
O606        C616   1.277       .  A
O607       Cu612   2.008   1_556  S
O607        C616   1.278       .  A
O608       Cu612   2.014       .  S
O608        C615   1.278       .  A
O609       Cu612   2.023   1_556  S
O609        C614   1.280       .  A
O610       Cu612   2.023       .  S
O610        C613   1.280       .  A
Cu611      Cu612   2.370       .  S
C613       C2682   1.484       .  S
C614       C2662   1.481       .  S
C615       C2633   1.481       .  S
C616       C2782   1.474       .  S
C617        C618   1.541       .  S
C617        C623   1.529       .  S
C617        C621   1.531       .  S
C617       C2622   1.524       .  S
C618        H625   1.081       .  S
C618        C619   1.374       .  D
C619        C620   1.548       .  S
C619       C2653   1.492       .  S
C620        C624   1.536       .  S
C620        C622   1.544       .  S
C620        H626   1.108       .  S
C621        H627   1.086       .  S
C621        C622   1.365       .  D
C622       C4902   1.489       .  S
C623        H628   1.087       .  S
C623        C624   1.360       .  D
C624       C2593   1.470       .  S
C629        C630   1.541       .  S
C629        C635   1.532       .  S
C629        C633   1.528       .  S
C629       C2573   1.524       .  S
C630        H637   1.080       .  S
C630        C631   1.374       .  D
C631        C632   1.549       .  S
C631       C2562   1.497       .  S
C632        C636   1.535       .  S
C632        C634   1.546       .  S
C632        H638   1.109       .  S
C633        H639   1.086       .  S
C633        C634   1.366       .  D
C634       C2533   1.484       .  S
C635        H640   1.087       .  S
C635        C636   1.359       .  D
C636       C5022   1.472       .  S
C641        C642   1.542       .  S
C641        C647   1.538       .  S
C641        C645   1.533       .  S
C641       C2513   1.528       .  S
C642        H649   1.082       .  S
C642        C643   1.368       .  D
C643        C644   1.538       .  S
C643       C4193   1.480       .  S
C644        C648   1.534       .  S
C644        C646   1.543       .  S
C644        H650   1.107       .  S
C645        H651   1.085       .  S
C645        C646   1.369       .  D
C646       C2493   1.494       .  S
C647        H652   1.086       .  S
C647        C648   1.366       .  D
C648       C2473   1.483       .  S
O653       Cu661   2.018       .  S
O653        C663   1.279       .  A
O654       Cu661   2.024   1_455  S
O654        C664   1.280       .  A
O655       Cu661   2.007       .  S
O655        C665   1.278       .  A
O656       Cu661   2.002   1_455  S
O656        C666   1.277       .  A
O657       Cu662   2.006   1_455  S
O657        C666   1.278       .  A
O658       Cu662   2.007       .  S
O658        C665   1.278       .  A
O659       Cu662   1.984   1_455  S
O659        C664   1.275       .  A
O660       Cu662   1.992       .  S
O660        C663   1.276       .  A
Cu661      Cu662   2.373       .  S
C663       C2453   1.476       .  S
C664       C4813   1.475       .  S
C665       C3602   1.477       .  S
C666       C2442   1.475       .  S
O667       Cu675   2.015       .  S
O667        C677   1.279       .  A
O668       Cu675   2.020   1_556  S
O668        C678   1.280       .  A
O669       Cu675   1.999       .  S
O669        C679   1.277       .  A
O670       Cu675   1.999   1_556  S
O670        C680   1.277       .  A
O671       Cu676   2.012   1_556  S
O671        C680   1.279       .  A
O672       Cu676   2.013       .  S
O672        C679   1.279       .  A
O673       Cu676   1.995   1_556  S
O673        C678   1.276       .  A
O674       Cu676   1.998       .  S
O674        C677   1.277       .  A
Cu675      Cu676   2.371       .  S
C677       C2422   1.478       .  S
C678       C4093   1.478       .  S
C679       C4213   1.479       .  S
C680       C2462   1.478       .  S
C681        C682   1.545       .  S
C681        C687   1.531       .  S
C681        C685   1.532       .  S
C681       C2382   1.528       .  S
C682        H689   1.077       .  S
C682        C683   1.372       .  D
C683        C684   1.541       .  S
C683       C2393   1.496       .  S
C684        C688   1.534       .  S
C684        C686   1.541       .  S
C684        H690   1.108       .  S
C685        H691   1.086       .  S
C685        C686   1.366       .  D
C686       C4142   1.475       .  S
C687        H692   1.087       .  S
C687        C688   1.360       .  D
C688       C4802   1.469       .  S
O693       Cu701   2.002   1_556  S
O693        C703   1.278       .  A
O694       Cu701   2.004       .  S
O694        C704   1.278       .  A
O695       Cu701   1.993   1_556  S
O695        C705   1.276       .  A
O696       Cu701   1.993       .  S
O696        C706   1.276       .  A
O697       Cu702   2.024       .  S
O697        C706   1.280       .  A
O698       Cu702   2.019   1_556  S
O698        C705   1.279       .  A
O699       Cu702   2.008       .  S
O699        C704   1.278       .  A
O700       Cu702   2.008   1_556  S
O700        C703   1.278       .  A
Cu701      Cu702   2.371       .  S
C703       C2373   1.479       .  S
C704       C2342   1.478       .  S
C705       C2433   1.477       .  S
C706       C2353   1.481       .  S
O707       Cu715   1.993       .  S
O707        C717   1.276       .  A
O708       Cu715   1.998   1_455  S
O708        C718   1.277       .  A
O709       Cu715   1.996       .  S
O709        C719   1.277       .  A
O710       Cu715   2.000   1_455  S
O710        C720   1.277       .  A
O711       Cu716   2.008   1_455  S
O711        C720   1.278       .  A
O712       Cu716   2.018       .  S
O712        C719   1.279       .  A
O713       Cu716   2.029   1_455  S
O713        C718   1.281       .  A
O714       Cu716   2.026       .  S
O714        C717   1.280       .  A
Cu715      Cu716   2.371       .  S
C717       C2413   1.478       .  S
C718       C2553   1.486       .  S
C719       C2502   1.480       .  S
C720       C2333   1.474       .  S
C721        C722   1.539       .  S
C721        C727   1.530       .  S
C721        C725   1.539       .  S
C721       C2362   1.528       .  S
C722        H729   1.082       .  S
C722        C723   1.363       .  D
C723        C724   1.533       .  S
C723       C4262   1.469       .  S
C724        C728   1.538       .  S
C724        C726   1.548       .  S
C724        H730   1.108       .  S
C725        H731   1.084       .  S
C725        C726   1.374       .  D
C726       C2313   1.498       .  S
C727        H732   1.087       .  S
C727        C728   1.363       .  D
C728       C2542   1.480       .  S
O733       Cu741   2.023       .  S
O733        C743   1.280       .  A
O734       Cu741   2.019   1_556  S
O734        C744   1.280       .  A
O735       Cu741   1.990       .  S
O735        C745   1.276       .  A
O736       Cu741   1.988   1_556  S
O736        C746   1.275       .  A
O737       Cu742   2.002   1_556  S
O737        C746   1.278       .  A
O738       Cu742   2.009       .  S
O738        C745   1.278       .  A
O739       Cu742   2.017   1_556  S
O739        C744   1.279       .  A
O740       Cu742   2.010       .  S
O740        C743   1.279       .  A
Cu741      Cu742   2.371       .  S
C743       C2273   1.486       .  S
C744       C3662   1.487       .  S
C745       C4673   1.475       .  S
C746       C2293   1.468       .  S
O747       Cu755   1.989       .  S
O747        C757   1.276       .  A
O748       Cu755   1.999       .  S
O748        C758   1.277       .  A
O749       Cu755   2.007       .  S
O749        C759   1.278       .  A
O750       Cu755   2.003       .  S
O750        C760   1.278       .  A
O751       Cu756   2.014       .  S
O751        C760   1.279       .  A
O752       Cu756   2.011       .  S
O752        C759   1.278       .  A
O753       Cu756   1.988       .  S
O753        C758   1.276       .  A
O754       Cu756   1.993       .  S
O754        C757   1.277       .  A
Cu755      Cu756   2.374       .  S
C757       C2302   1.469       .  S
C758       C4393   1.470   1_655  S
C759       C4022   1.475       .  S
C760       C2253   1.480   1_655  S
O761       Cu769   2.007       .  S
O761        C771   1.278       .  A
O762       Cu769   2.010   1_455  S
O762        C772   1.278       .  A
O763       Cu769   1.998       .  S
O763        C773   1.277       .  A
O764       Cu769   2.007   1_455  S
O764        C774   1.278       .  A
O765       Cu770   2.016   1_455  S
O765        C774   1.279       .  A
O766       Cu770   2.020       .  S
O766        C773   1.279       .  A
O767       Cu770   2.035   1_455  S
O767        C772   1.282       .  A
O768       Cu770   2.033       .  S
O768        C771   1.281       .  A
Cu769      Cu770   2.369       .  S
C771       C2282   1.487       .  S
C772       C2213   1.490       .  S
C773       C2233   1.477       .  S
C774       C2202   1.480       .  S
C775        C776   1.541       .  S
C775        C781   1.534       .  S
C775        C779   1.533       .  S
C775       C2153   1.527       .  S
C776        H783   1.081       .  S
C776        C777   1.369       .  D
C777        C778   1.540       .  S
C777       C4662   1.484       .  S
C778        C782   1.537       .  S
C778        C780   1.540       .  S
C778        H784   1.110       .  S
C779        H785   1.086       .  S
C779        C780   1.367       .  D
C780       C2242   1.480       .  S
C781        H786   1.087       .  S
C781        C782   1.364       .  D
C782       C2173   1.480       .  S
O787       Cu795   2.015   1_554  S
O787        C797   1.279       .  A
O788       Cu795   2.015       .  S
O788        C798   1.279       .  A
O789       Cu795   2.002   1_554  S
O789        C799   1.277       .  A
O790       Cu795   2.001       .  S
O790        C800   1.277       .  A
O791       Cu796   2.035       .  S
O791        C800   1.282       .  A
O792       Cu796   2.024   1_554  S
O792        C799   1.281       .  A
O793       Cu796   2.001       .  S
O793        C798   1.277       .  A
O794       Cu796   1.999   1_554  S
O794        C797   1.277       .  A
Cu795      Cu796   2.370       .  S
C797       C2122   1.480       .  S
C798       C2262   1.476       .  S
C799       C2193   1.484       .  S
C800       C2133   1.488       .  S
C801        C802   1.538       .  S
C801        C807   1.541       .  S
C801        C805   1.544       .  S
C801       C2093   1.535       .  S
C802        H809   1.086       .  S
C802        C803   1.367       .  D
C803        C804   1.537       .  S
C803       C2602   1.483       .  S
C804        C808   1.536       .  S
C804        C806   1.539       .  S
C804        H810   1.110       .  S
C805        H811   1.081       .  S
C805        C806   1.367       .  D
C806       C4382   1.482       .  S
C807        H812   1.086       .  S
C807        C808   1.368       .  D
C808       C2142   1.485       .  S
C813        C814   1.532       .  S
C813        C819   1.545       .  S
C813        C817   1.530       .  S
C813       C2033   1.523       .  S
C814        H821   1.087       .  S
C814        C815   1.362       .  D
C815        C816   1.534       .  S
C815       C2053   1.474       .  S
C816        C820   1.540       .  S
C816        C818   1.544       .  S
C816        H822   1.110       .  S
C817        H823   1.085       .  S
C817        C818   1.367       .  D
C818       C2082   1.487       .  S
C819        H824   1.082       .  S
C819        C820   1.368       .  D
C820       C4342   1.478       .  S
C825        C826   1.539       .  S
C825        C831   1.533       .  S
C825        C829   1.528       .  S
C825       C2002   1.524       .  S
C826        H833   1.077       .  S
C826        C827   1.369       .  D
C827        C828   1.544       .  S
C827       C2013   1.495       .  S
C828        C832   1.536       .  S
C828        C830   1.547       .  S
C828        H834   1.108       .  S
C829        H835   1.086       .  S
C829        C830   1.367       .  D
C830       C3982   1.483       .  S
C831        H836   1.087       .  S
C831        C832   1.362       .  D
C832       C4953   1.475       .  S
O837       Cu845   2.017   1_455  S
O837        C847   1.279       .  A
O838       Cu845   2.016       .  S
O838        C848   1.279       .  A
O839       Cu845   2.008   1_455  S
O839        C849   1.278       .  A
O840       Cu845   2.006       .  S
O840        C850   1.278       .  A
O841       Cu846   2.004       .  S
O841        C850   1.278       .  A
O842       Cu846   2.008   1_455  S
O842        C849   1.278       .  A
O843       Cu846   2.016       .  S
O843        C848   1.279       .  A
O844       Cu846   2.014   1_455  S
O844        C847   1.279       .  A
Cu845      Cu846   2.370       .  S
C847       C4573   1.485       .  S
C848       C1973   1.486       .  S
C849       C1953   1.480       .  S
C850       C3782   1.478       .  S
O851       Cu859   2.025   1_565  S
O851        C861   1.280       .  A
O852       Cu859   2.024       .  S
O852        C862   1.280       .  A
O853       Cu859   1.998   1_565  S
O853        C863   1.278       .  A
O854       Cu859   2.005       .  S
O854        C864   1.277       .  A
O855       Cu860   2.006       .  S
O855        C864   1.278       .  A
O856       Cu860   2.011   1_565  S
O856        C863   1.278       .  A
O857       Cu860   1.998       .  S
O857        C862   1.277       .  A
O858       Cu860   2.008   1_565  S
O858        C861   1.278       .  A
Cu859      Cu860   2.370       .  S
C861       C1982   1.483       .  S
C862       C4982   1.482       .  S
C863       C3502   1.479       .  S
C864       C1942   1.474       .  S
C865        C866   1.540       .  S
C865        C871   1.533       .  S
C865        C869   1.536       .  S
C865       C1913   1.526       .  S
C866        H873   1.081       .  S
C866        C867   1.366       .  D
C867        C868   1.541       .  S
C867       C4553   1.481       .  S
C868        C872   1.542       .  S
C868        C870   1.540       .  S
C868        H874   1.109       .  S
C869        H875   1.086       .  S
C869        C870   1.369       .  D
C870       C1893   1.485       .  S
C871        H876   1.086       .  S
C871        C872   1.364       .  D
C872       C3522   1.488       .  S
O877       Cu885   1.996   1_545  S
O877        C887   1.277       .  A
O878       Cu885   2.001       .  S
O878        C888   1.278       .  A
O879       Cu885   2.013   1_545  S
O879        C889   1.279       .  A
O880       Cu885   2.002       .  S
O880        C890   1.278       .  A
O881       Cu886   2.010       .  S
O881        C890   1.278       .  A
O882       Cu886   2.009   1_545  S
O882        C889   1.278       .  A
O883       Cu886   2.016       .  S
O883        C888   1.279       .  A
O884       Cu886   2.014   1_545  S
O884        C887   1.279       .  A
Cu885      Cu886   2.372       .  S
C887       C1873   1.477       .  S
C888       C1962   1.480       .  S
C889       C1853   1.483       .  S
C890       C1902   1.476       .  S
O891       Cu899   2.015   1_455  S
O891        C901   1.279       .  A
O892       Cu899   2.007       .  S
O892        C902   1.278       .  A
O893       Cu899   2.006   1_455  S
O893        C903   1.278       .  A
O894       Cu899   1.992       .  S
O894        C904   1.276       .  A
O895       Cu900   2.005       .  S
O895        C904   1.278       .  A
O896       Cu900   2.014   1_455  S
O896        C903   1.279       .  A
O897       Cu900   1.997       .  S
O897        C902   1.277       .  A
O898       Cu900   1.993   1_455  S
O898        C901   1.276       .  A
Cu899      Cu900   2.372       .  S
C901       C2062   1.478       .  S
C902       C1933   1.475       .  S
C903       C1862   1.479       .  S
C904       C1993   1.474       .  S
C905        C906   1.528       .  S
C905        C911   1.534       .  S
C905        C909   1.539       .  S
C905       C1833   1.522       .  S
C906        H913   1.086       .  S
C906        C907   1.366       .  D
C907        C908   1.543       .  S
C907       C1882   1.484       .  S
C908        C912   1.540       .  S
C908        C910   1.543       .  S
C908        H914   1.108       .  S
C909        H915   1.080       .  S
C909        C910   1.367       .  D
C910       C2042   1.490       .  S
C911        H916   1.086       .  S
C911        C912   1.365       .  D
C912       C4862   1.477       .  S
O917       Cu925   2.017   1_545  S
O917        C927   1.279       .  A
O918       Cu925   2.018       .  S
O918        C928   1.279       .  A
O919       Cu925   2.019   1_545  S
O919        C929   1.280       .  A
O920       Cu925   2.012       .  S
O920        C930   1.278       .  A
O921       Cu926   1.987       .  S
O921        C930   1.276       .  A
O922       Cu926   1.994   1_545  S
O922        C929   1.276       .  A
O923       Cu926   2.002       .  S
O923        C928   1.278       .  A
O924       Cu926   2.012   1_545  S
O924        C927   1.279       .  A
Cu925      Cu926   2.371       .  S
C927       C1793   1.485       .  S
C928       C3862   1.479       .  S
C929       C4533   1.481       .  S
C930       C1822   1.469       .  S
O931       Cu939   2.019       .  S
O931        C941   1.279       .  A
O932       Cu939   2.020       .  S
O932        C942   1.280   1_655  A
O933       Cu939   2.010       .  S
O933        C943   1.279       .  A
O934       Cu939   2.010       .  S
O934        C944   1.278   1_655  A
O935       Cu940   1.982   1_455  S
O935        C944   1.276       .  A
O936       Cu940   1.984       .  S
O936        C943   1.275       .  A
O937       Cu940   2.006   1_455  S
O937        C942   1.278       .  A
O938       Cu940   2.000       .  S
O938        C941   1.277       .  A
Cu939      Cu940   2.371       .  S
C941       C1753   1.481       .  S
C942       C1773   1.482       .  S
C943       C1813   1.473       .  S
C944       C5082   1.474       .  S
O945       Cu953   2.028   1_455  S
O945        C955   1.281       .  A
O946       Cu953   2.028       .  S
O946        C956   1.280       .  A
O947       Cu953   2.016   1_455  S
O947        C957   1.278       .  A
O948       Cu953   2.023       .  S
O948        C958   1.280       .  A
O949       Cu954   1.998       .  S
O949        C958   1.278       .  A
O950       Cu954   1.993   1_455  S
O950        C957   1.276       .  A
O951       Cu954   1.997       .  S
O951        C956   1.277       .  A
O952       Cu954   1.992   1_455  S
O952        C955   1.276       .  A
Cu953      Cu954   2.370       .  S
C955       C1702   1.480       .  S
C956       C1733   1.481       .  S
C957       C1713   1.472       .  S
C958       C1802   1.482       .  S
C959        C960   1.540       .  S
C959        C965   1.535       .  S
C959        C963   1.540       .  S
C959       C1673   1.531       .  S
C960        H967   1.081       .  S
C960        C961   1.364       .  D
C961        C962   1.534       .  S
C961       C4522   1.470       .  S
C962        C966   1.534       .  S
C962        C964   1.541       .  S
C962        H968   1.111       .  S
C963        H969   1.086       .  S
C963        C964   1.372       .  D
C964       C1742   1.487       .  S
C965        H970   1.087       .  S
C965        C966   1.362       .  D
C966       C2162   1.470       .  S
O971       Cu979   2.013       .  S
O971        C981   1.279   1_565  A
O972       Cu979   2.009       .  S
O972        C982   1.278       .  A
O973       Cu979   2.005       .  S
O973        C983   1.277   1_565  A
O974       Cu979   1.997       .  S
O974        C984   1.277       .  A
O975       Cu980   2.017       .  S
O975        C984   1.279       .  A
O976       Cu980   2.014   1_545  S
O976        C983   1.279       .  A
O977       Cu980   2.018       .  S
O977        C982   1.279       .  A
O978       Cu980   2.010       .  S
O978        C981   1.278   1_565  A
Cu979      Cu980   2.371       .  S
C981       C1642   1.483       .  S
C982       C1782   1.482       .  S
C983       C1693   1.481       .  S
C984       C1653   1.477       .  S
C985        C986   1.537       .  S
C985        C991   1.539       .  S
C985        C989   1.534       .  S
C985       C1613   1.530       .  S
C986        H993   1.085       .  S
C986        C987   1.366       .  D
C987        C988   1.542       .  S
C987       C1662   1.488       .  S
C988        C992   1.535       .  S
C988        C990   1.547       .  S
C988        H994   1.109       .  S
C989        H995   1.086       .  S
C989        C990   1.371       .  D
C990       C5062   1.491       .  S
C991        H996   1.084       .  S
C991        C992   1.363       .  D
C992       C2742   1.473       .  S
C997        C998   1.536       .  S
C997       C1003   1.532       .  S
C997       C1001   1.529       .  S
C997       C1593   1.519       .  S
C998       H1005   1.083       .  S
C998        C999   1.367       .  D
C999       C1000   1.541       .  S
C999       C1722   1.485       .  S
C1000      C1004   1.539       .  S
C1000      C1002   1.542       .  S
C1000      H1006   1.109       .  S
C1001      H1007   1.086       .  S
C1001      C1002   1.367       .  D
C1002      C1562   1.481       .  S
C1003      H1008   1.086       .  S
C1003      C1004   1.362       .  D
C1004      C1573   1.477       .  S
C1009      C1010   1.528       .  S
C1009      C1015   1.533       .  S
C1009      C1013   1.536       .  S
C1009      C1553   1.521       .  S
C1010      H1017   1.085       .  S
C1010      C1011   1.369       .  D
C1011      C1012   1.548       .  S
C1011      C1533   1.495       .  S
C1012      C1016   1.539       .  S
C1012      C1014   1.548       .  S
C1012      H1018   1.109       .  S
C1013      H1019   1.084       .  S
C1013      C1014   1.367       .  D
C1014      C1522   1.486       .  S
C1015      H1020   1.086       .  S
C1015      C1016   1.363       .  D
C1016      C1633   1.476       .  S
O1021     Cu1029   2.010       .  S
O1021      C1031   1.278       .  A
O1022     Cu1029   2.010       .  S
O1022      C1032   1.279       .  A
O1023     Cu1029   2.004       .  S
O1023      C1033   1.278       .  A
O1024     Cu1029   2.003       .  S
O1024      C1034   1.277       .  A
O1025     Cu1030   2.023       .  S
O1025      C1034   1.280       .  A
O1026     Cu1030   2.017       .  S
O1026      C1033   1.279       .  A
O1027     Cu1030   2.002       .  S
O1027      C1032   1.277       .  A
O1028     Cu1030   2.000       .  S
O1028      C1031   1.278       .  A
Cu1029    Cu1030   2.371       .  S
C1031      C1922   1.478       .  S
C1032      C1493   1.477       .  S
C1033      C3262   1.480       .  S
C1034      C1622   1.483       .  S
O1035     Cu1043   1.987       .  S
O1035      C1045   1.276       .  A
O1036     Cu1043   1.994       .  S
O1036      C1046   1.276       .  A
O1037     Cu1043   1.993       .  S
O1037      C1047   1.277       .  A
O1038     Cu1043   1.992       .  S
O1038      C1048   1.276       .  A
O1039     Cu1044   2.003       .  S
O1039      C1048   1.278       .  A
O1040     Cu1044   2.006       .  S
O1040      C1047   1.277       .  A
O1041     Cu1044   2.015       .  S
O1041      C1046   1.279       .  A
O1042     Cu1044   2.014       .  S
O1042      C1045   1.279       .  A
Cu1043    Cu1044   2.374       .  S
C1045      C2073   1.472       .  S
C1046      C1473   1.473       .  S
C1047      C3322   1.472       .  S
C1048      C1602   1.473       .  S
O1049     Cu1057   2.000       .  S
O1049      C1059   1.276       .  A
O1050     Cu1057   2.001       .  S
O1050      C1060   1.278       .  A
O1051     Cu1057   1.996       .  S
O1051      C1061   1.277       .  A
O1052     Cu1057   1.996       .  S
O1052      C1062   1.277       .  A
O1053     Cu1058   2.005       .  S
O1053      C1062   1.278       .  A
O1054     Cu1058   2.000       .  S
O1054      C1061   1.277       .  A
O1055     Cu1058   2.020       .  S
O1055      C1060   1.279       .  A
O1056     Cu1058   2.022       .  S
O1056      C1059   1.280       .  A
Cu1057    Cu1058   2.372       .  S
C1059      C3342   1.479       .  S
C1060      C1542   1.482       .  S
C1061      C1842   1.474       .  S
C1062      C1453   1.474       .  S
O1063     Cu1071   1.994       .  S
O1063      C1073   1.276       .  A
O1064     Cu1071   1.993       .  S
O1064      C1074   1.277       .  A
O1065     Cu1071   2.009       .  S
O1065      C1075   1.279       .  A
O1066     Cu1071   2.004       .  S
O1066      C1076   1.278       .  A
O1067     Cu1072   2.012       .  S
O1067      C1076   1.279       .  A
O1068     Cu1072   2.015       .  S
O1068      C1075   1.279       .  A
O1069     Cu1072   2.014       .  S
O1069      C1074   1.278       .  A
O1070     Cu1072   2.013       .  S
O1070      C1073   1.279       .  A
Cu1071    Cu1072   2.371       .  S
C1073      C1433   1.476       .  S
C1074      C2022   1.478       .  S
C1075      C1682   1.484       .  S
C1076      C3402   1.479       .  S
C1077      C1078   1.531       .  S
C1077      C1083   1.537       .  S
C1077      C1081   1.536       .  S
C1077      C1582   1.528       .  S
C1078      H1085   1.086       .  S
C1078      C1079   1.365       .  D
C1079      C1080   1.543       .  S
C1079      C1413   1.489       .  S
C1080      C1084   1.552       .  S
C1080      C1082   1.552       .  S
C1080      H1086   1.108       .  S
C1081      H1087   1.085       .  S
C1081      C1082   1.369       .  D
C1082      C2222   1.500       .  S
C1083      H1088   1.083       .  S
C1083      C1084   1.369       .  D
C1084      C1402   1.495       .  S
C1089      C1090   1.537       .  S
C1089      C1095   1.525       .  S
C1089      C1093   1.530       .  S
C1089      C2113   1.527       .  S
C1090      H1097   1.081       .  S
C1090      C1091   1.369       .  D
C1091      C1092   1.548       .  S
C1091      C1373   1.490       .  S
C1092      C1096   1.550       .  S
C1092      C1094   1.551       .  S
C1092      H1098   1.108       .  S
C1093      H1099   1.085       .  S
C1093      C1094   1.369       .  D
C1094      C1353   1.496       .  S
C1095      H1100   1.085       .  S
C1095      C1096   1.366       .  D
C1096      C1393   1.495       .  S
O1101     Cu1109   2.017       .  S
O1101      C1111   1.279       .  A
O1102     Cu1109   2.015       .  S
O1102      C1112   1.279       .  A
O1103     Cu1109   2.022       .  S
O1103      C1113   1.278       .  A
O1104     Cu1109   2.026       .  S
O1104      C1114   1.280       .  A
O1105     Cu1110   2.007       .  S
O1105      C1114   1.278       .  A
O1106     Cu1110   2.008       .  S
O1106      C1113   1.278       .  A
O1107     Cu1110   2.002       .  S
O1107      C1112   1.278       .  A
O1108     Cu1110   1.993       .  S
O1108      C1111   1.276       .  A
Cu1109    Cu1110   2.370       .  S
C1111      C1333   1.475       .  S
C1112      C2322   1.482       .  S
C1113      C1382   1.476       .  S
C1114      C3162   1.486       .  S
O1115     Cu1123   2.002       .  S
O1115      C1125   1.277       .  A
O1116     Cu1123   2.009       .  S
O1116      C1126   1.278       .  A
O1117     Cu1123   2.019       .  S
O1117      C1127   1.279       .  A
O1118     Cu1123   2.014       .  S
O1118      C1128   1.279       .  A
O1119     Cu1124   2.000       .  S
O1119      C1128   1.277       .  A
O1120     Cu1124   2.000       .  S
O1120      C1127   1.278       .  A
O1121     Cu1124   2.012       .  S
O1121      C1126   1.279       .  A
O1122     Cu1124   2.013       .  S
O1122      C1125   1.279       .  A
Cu1123    Cu1124   2.371       .  S
C1125      C1442   1.478       .  S
C1126      C2522   1.483       .  S
C1127      C2182   1.482       .  S
C1128      C3462   1.477       .  S
O1129     Cu1137   1.992       .  S
O1129      C1139   1.277       .  A
O1130     Cu1137   1.995       .  S
O1130      C1140   1.276       .  A
O1131     Cu1137   2.023       .  S
O1131      C1141   1.280       .  A
O1132     Cu1137   2.020       .  S
O1132      C1142   1.280       .  A
O1133     Cu1138   2.017       .  S
O1133      C1142   1.279       .  A
O1134     Cu1138   2.014       .  S
O1134      C1141   1.278       .  A
O1135     Cu1138   2.017       .  S
O1135      C1140   1.279       .  A
O1136     Cu1138   2.014       .  S
O1136      C1139   1.279       .  A
Cu1137    Cu1138   2.370       .  S
C1139      C2402   1.477       .  S
C1140      C1313   1.478       .  S
C1141      C3142   1.487       .  S
C1142      C2102   1.488       .  S
O1143     Cu1151   2.003       .  S
O1143      C1153   1.278       .  A
O1144     Cu1151   1.998       .  S
O1144      C1154   1.277       .  A
O1145     Cu1151   2.027       .  S
O1145      C1155   1.280       .  A
O1146     Cu1151   2.024       .  S
O1146      C1156   1.280       .  A
O1147     Cu1152   2.020       .  S
O1147      C1156   1.280       .  A
O1148     Cu1152   2.024       .  S
O1148      C1155   1.280       .  A
O1149     Cu1152   2.010       .  S
O1149      C1154   1.278       .  A
O1150     Cu1152   2.004       .  S
O1150      C1153   1.278       .  A
Cu1151    Cu1152   2.369       .  S
C1153      C2582   1.478       .  S
C1154      C1482   1.478       .  S
C1155      C3282   1.488       .  S
C1156      C1422   1.491       .  S
C1157      C1158   1.538       .  S
C1157      C1163   1.530       .  S
C1157      C1161   1.531       .  S
C1157      C1293   1.529       .  S
C1158      H1165   1.080       .  S
C1158      C1159   1.369       .  D
C1159      C1160   1.545       .  S
C1159      C2693   1.491       .  S
C1160      C1164   1.545       .  S
C1160      C1162   1.549       .  S
C1160      H1166   1.107       .  S
C1161      H1167   1.085       .  S
C1161      C1162   1.370       .  D
C1162      C1273   1.493       .  S
C1163      H1168   1.086       .  S
C1163      C1164   1.366       .  D
C1164      C1513   1.492       .  S
C1169      C1170   1.542       .  S
C1169      C1175   1.531       .  S
C1169      C1173   1.537       .  S
C1169      C1253   1.529       .  S
C1170      H1177   1.082       .  S
C1170      C1171   1.365       .  D
C1171      C1172   1.537       .  S
C1171      C1282   1.474       .  S
C1172      C1176   1.544       .  S
C1172      C1174   1.542       .  S
C1172      H1178   1.110       .  S
C1173      H1179   1.086       .  S
C1173      C1174   1.370       .  D
C1174      C2642   1.487       .  S
C1175      H1180   1.086       .  S
C1175      C1176   1.365       .  D
C1176      C1362   1.486       .  S
O1181     Cu1189   1.990       .  S
O1181      C1191   1.276       .  A
O1182     Cu1189   1.999       .  S
O1182      C1192   1.277       .  A
O1183     Cu1189   2.012       .  S
O1183      C1193   1.279       .  A
O1184     Cu1189   2.013       .  S
O1184      C1194   1.279       .  A
O1185     Cu1190   2.008       .  S
O1185      C1194   1.278       .  A
O1186     Cu1190   2.003       .  S
O1186      C1193   1.277       .  A
O1187     Cu1190   2.026       .  S
O1187      C1192   1.280       .  A
O1188     Cu1190   2.022       .  S
O1188      C1191   1.280       .  A
Cu1189    Cu1190   2.370       .  S
C1191      C2613   1.479       .  S
C1192      C3102   1.482       .  S
C1193      C1322   1.479       .  S
C1194      C2922   1.480       .  S
O1195     Cu1203   2.017       .  S
O1195      C1205   1.280       .  A
O1196     Cu1203   2.016       .  S
O1196      C1206   1.279       .  A
O1197     Cu1203   1.998       .  S
O1197      C1207   1.276       .  A
O1198     Cu1203   1.995       .  S
O1198      C1208   1.277       .  A
O1199     Cu1204   2.006       .  S
O1199      C1208   1.278       .  A
O1200     Cu1204   2.004       .  S
O1200      C1207   1.278       .  A
O1201     Cu1204   2.006       .  S
O1201      C1206   1.278       .  A
O1202     Cu1204   2.001       .  S
O1202      C1205   1.277       .  A
Cu1203    Cu1204   2.372       .  S
C1205      C1302   1.479       .  S
C1206      C3382   1.481       .  S
C1207      C1462   1.472       .  S
C1208      C3082   1.476       .  S
O1209     Cu1217   1.998       .  S
O1209      C1219   1.278       .  A
O1210     Cu1217   2.000       .  S
O1210      C1220   1.277       .  A
O1211     Cu1217   2.008       .  S
O1211      C1221   1.279       .  A
O1212     Cu1217   2.008       .  S
O1212      C1222   1.278       .  A
O1213     Cu1218   2.015       .  S
O1213      C1222   1.279       .  A
O1214     Cu1218   2.012       .  S
O1214      C1221   1.278       .  A
O1215     Cu1218   2.009       .  S
O1215      C1220   1.278       .  A
O1216     Cu1218   2.010       .  S
O1216      C1219   1.278       .  A
Cu1217    Cu1218   2.371       .  S
C1219      C2842   1.478       .  S
C1220      C1342   1.477       .  S
C1221      C3202   1.481       .  S
C1222      C1262   1.483       .  S
O1223     Cu1231   2.001       .  S
O1223      C1233   1.277       .  A
O1224     Cu1231   2.005       .  S
O1224      C1234   1.277       .  A
O1225     Cu1231   2.014       .  S
O1225      C1235   1.279       .  A
O1226     Cu1231   2.017       .  S
O1226      C1236   1.279       .  A
O1227     Cu1232   2.022       .  S
O1227      C1236   1.279       .  A
O1228     Cu1232   2.021       .  S
O1228      C1235   1.280       .  A
O1229     Cu1232   2.007       .  S
O1229      C1234   1.279       .  A
O1230     Cu1232   2.012       .  S
O1230      C1233   1.279       .  A
Cu1231    Cu1232   2.370       .  S
C1233      C1502   1.477       .  S
C1234      C3022   1.479       .  S
C1235      C2722   1.487       .  S
C1236      C3213   1.486       .  S
C1237      C1238   1.533       .  S
C1237      C1243   1.528       .  S
C1237      C1241   1.536       .  S
C1237      C2482   1.522       .  S
C1238      H1245   1.085       .  S
C1238      C1239   1.370       .  D
C1239      C1240   1.551       .  S
C1239      C3802   1.494       .  S
C1240      C1244   1.544       .  S
C1240      C1242   1.542       .  S
C1240      H1246   1.108       .  S
C1241      H1247   1.084       .  S
C1241      C1242   1.366       .  D
C1242      C1762   1.479       .  S
C1243      H1248   1.086       .  S
C1243      C1244   1.365       .  D
C1244      C3422   1.492       .  S
C1249      C1250   1.406       .  A
C1249      C1254   1.399       .  A
C1249      H1259   1.083       .  S
C1250      C1255   1.490       .  S
C1250      C1251   1.404       .  A
C1251      C1252   1.397       .  A
C1251      H1256   1.082       .  S
C1252      C1253   1.409       .  A
C1252      H1257   1.083       .  S
C1253      C1254   1.410       .  A
C1254      H1258   1.077       .  S
C1255      C1260   1.407       .  A
C1255      C1264   1.407       .  A
C1260      C1261   1.398       .  A
C1260      H1265   1.083       .  S
C1261      C1262   1.405       .  A
C1261      H1266   1.083       .  S
C1262      C1263   1.406       .  A
C1263      C1264   1.399       .  A
C1263      H1267   1.083       .  S
C1264      H1268   1.083       .  S
C1269      C1270   1.406       .  A
C1269      C1274   1.402       .  A
C1269      H1279   1.083       .  S
C1270      C1275   1.488       .  S
C1270      C1271   1.405       .  A
C1271      C1272   1.396       .  A
C1271      H1276   1.083       .  S
C1272      C1273   1.407       .  A
C1272      H1277   1.082       .  S
C1273      C1274   1.406       .  A
C1274      H1278   1.078       .  S
C1275      C1280   1.408       .  A
C1275      C1284   1.407       .  A
C1280      C1281   1.401       .  A
C1280      H1285   1.083       .  S
C1281      C1282   1.401       .  A
C1281      H1286   1.083       .  S
C1282      C1283   1.400       .  A
C1283      C1284   1.398       .  A
C1283      H1287   1.083       .  S
C1284      H1288   1.083       .  S
C1289      C1290   1.405       .  A
C1289      C1294   1.398       .  A
C1289      H1299   1.082       .  S
C1290      C1295   1.490       .  S
C1290      C1291   1.405       .  A
C1291      C1292   1.397       .  A
C1291      H1296   1.083       .  S
C1292      C1293   1.410       .  A
C1292      H1297   1.077       .  S
C1293      C1294   1.409       .  A
C1294      H1298   1.083       .  S
C1295      C1300   1.407       .  A
C1295      C1304   1.408       .  A
C1300      C1301   1.399       .  A
C1300      H1305   1.083       .  S
C1301      C1302   1.406       .  A
C1301      H1306   1.083       .  S
C1302      C1303   1.403       .  A
C1303      C1304   1.397       .  A
C1303      H1307   1.083       .  S
C1304      H1308   1.082       .  S
C1309      C1310   1.406       .  A
C1309      C1314   1.395       .  A
C1309      H1319   1.082       .  S
C1310      C1315   1.489       .  S
C1310      C1311   1.408       .  A
C1311      C1312   1.399       .  A
C1311      H1316   1.082       .  S
C1312      C1313   1.404       .  A
C1312      H1317   1.083       .  S
C1313      C1314   1.405       .  A
C1314      H1318   1.083       .  S
C1315      C1320   1.407       .  A
C1315      C1324   1.407       .  A
C1320      C1321   1.396       .  A
C1320      H1325   1.082       .  S
C1321      C1322   1.403       .  A
C1321      H1326   1.083       .  S
C1322      C1323   1.406       .  A
C1323      C1324   1.398       .  A
C1323      H1327   1.083       .  S
C1324      H1328   1.082       .  S
C1329      C1330   1.408       .  A
C1329      C1334   1.400       .  A
C1329      H1339   1.082       .  S
C1330      C1335   1.487       .  S
C1330      C1331   1.406       .  A
C1331      C1332   1.394       .  A
C1331      H1336   1.082       .  S
C1332      C1333   1.403       .  A
C1332      H1337   1.083       .  S
C1333      C1334   1.404       .  A
C1334      H1338   1.083       .  S
C1335      C1340   1.406       .  A
C1335      C1344   1.407       .  A
C1340      C1341   1.398       .  A
C1340      H1345   1.082       .  S
C1341      C1342   1.405       .  A
C1341      H1346   1.083       .  S
C1342      C1343   1.404       .  A
C1343      C1344   1.395       .  A
C1343      H1347   1.083       .  S
C1344      H1348   1.083       .  S
C1349      C1350   1.401       .  A
C1349      C1354   1.395       .  A
C1349      H1359   1.083       .  S
C1350      C1355   1.486       .  S
C1350      C1351   1.407       .  A
C1351      C1352   1.403       .  A
C1351      H1356   1.083       .  S
C1352      C1353   1.407       .  A
C1352      H1357   1.082       .  S
C1353      C1354   1.410       .  A
C1354      H1358   1.081       .  S
C1355      C1360   1.409       .  A
C1355      C1364   1.403       .  A
C1360      C1361   1.402       .  A
C1360      H1365   1.083       .  S
C1361      C1362   1.403       .  A
C1361      H1366   1.083       .  S
C1362      C1363   1.407       .  A
C1363      C1364   1.396       .  A
C1363      H1367   1.083       .  S
C1364      H1368   1.083       .  S
C1369      C1370   1.406       .  A
C1369      C1374   1.394       .  A
C1369      H1379   1.082       .  S
C1370      C1375   1.494       .  S
C1370      C1371   1.410       .  A
C1371      C1372   1.406       .  A
C1371      H1376   1.082       .  S
C1372      C1373   1.405       .  A
C1372      H1377   1.082       .  S
C1373      C1374   1.405       .  A
C1374      H1378   1.083       .  S
C1375      C1380   1.407       .  A
C1375      C1384   1.410       .  A
C1380      C1381   1.395       .  A
C1380      H1385   1.083       .  S
C1381      C1382   1.401       .  A
C1381      H1386   1.084       .  S
C1382      C1383   1.404       .  A
C1383      C1384   1.405       .  A
C1383      H1387   1.083       .  S
C1384      H1388   1.082       .  S
C1389      C1390   1.399       .  A
C1389      C1394   1.389       .  A
C1389      H1399   1.084       .  S
C1390      C1395   1.483       .  S
C1390      C1391   1.408       .  A
C1391      C1392   1.409       .  A
C1391      H1396   1.083       .  S
C1392      C1393   1.408       .  A
C1392      H1397   1.082       .  S
C1393      C1394   1.408       .  A
C1394      H1398   1.082       .  S
C1395      C1400   1.406       .  A
C1395      C1404   1.401       .  A
C1400      C1401   1.398       .  A
C1400      H1405   1.083       .  S
C1401      C1402   1.402       .  A
C1401      H1406   1.079       .  S
C1402      C1403   1.413       .  A
C1403      C1404   1.402       .  A
C1403      H1407   1.082       .  S
C1404      H1408   1.083       .  S
C1409      C1410   1.406       .  A
C1409      C1414   1.397       .  A
C1409      H1419   1.083       .  S
C1410      C1415   1.493       .  S
C1410      C1411   1.409       .  A
C1411      C1412   1.406       .  A
C1411      H1416   1.083       .  S
C1412      C1413   1.405       .  A
C1412      H1417   1.083       .  S
C1413      C1414   1.405       .  A
C1414      H1418   1.083       .  S
C1415      C1420   1.407       .  A
C1415      C1424   1.407       .  A
C1420      C1421   1.404       .  A
C1420      H1425   1.083       .  S
C1421      C1422   1.408       .  A
C1421      H1426   1.083       .  S
C1422      C1423   1.406       .  A
C1423      C1424   1.400       .  A
C1423      H1427   1.083       .  S
C1424      H1428   1.083       .  S
C1429      C1430   1.408       .  A
C1429      C1434   1.397       .  A
C1429      H1439   1.082       .  S
C1430      C1435   1.488       .  S
C1430      C1431   1.406       .  A
C1431      C1432   1.396       .  A
C1431      H1436   1.082       .  S
C1432      C1433   1.404       .  A
C1432      H1437   1.083       .  S
C1433      C1434   1.403       .  A
C1434      H1438   1.083       .  S
C1435      C1440   1.408       .  A
C1435      C1444   1.406       .  A
C1440      C1441   1.398       .  A
C1440      H1445   1.082       .  S
C1441      C1442   1.404       .  A
C1441      H1446   1.083       .  S
C1442      C1443   1.404       .  A
C1443      C1444   1.396       .  A
C1443      H1447   1.083       .  S
C1444      H1448   1.082       .  S
C1449      C1450   1.407       .  A
C1449      C1454   1.398       .  A
C1449      H1459   1.082       .  S
C1450      C1455   1.486       .  S
C1450      C1451   1.406       .  A
C1451      C1452   1.393       .  A
C1451      H1456   1.082       .  S
C1452      C1453   1.403       .  A
C1452      H1457   1.083       .  S
C1453      C1454   1.404       .  A
C1454      H1458   1.083       .  S
C1455      C1460   1.407       .  A
C1455      C1464   1.407       .  A
C1460      C1461   1.397       .  A
C1460      H1465   1.082       .  S
C1461      C1462   1.404       .  A
C1461      H1466   1.083       .  S
C1462      C1463   1.401       .  A
C1463      C1464   1.393       .  A
C1463      H1467   1.083       .  S
C1464      H1468   1.082       .  S
C1469      C1470   1.406       .  A
C1469      C1474   1.395       .  A
C1469      H1479   1.083       .  S
C1470      C1475   1.486       .  S
C1470      C1471   1.408       .  A
C1471      C1472   1.398       .  A
C1471      H1476   1.082       .  S
C1472      C1473   1.402       .  A
C1472      H1477   1.083       .  S
C1473      C1474   1.404       .  A
C1474      H1478   1.083       .  S
C1475      C1480   1.407       .  A
C1475      C1484   1.405       .  A
C1480      C1481   1.397       .  A
C1480      H1485   1.082       .  S
C1481      C1482   1.404       .  A
C1481      H1486   1.083       .  S
C1482      C1483   1.405       .  A
C1483      C1484   1.395       .  A
C1483      H1487   1.083       .  S
C1484      H1488   1.082       .  S
C1489      C1490   1.408       .  A
C1489      C1494   1.399       .  A
C1489      H1499   1.082       .  S
C1490      C1495   1.489       .  S
C1490      C1491   1.407       .  A
C1491      C1492   1.396       .  A
C1491      H1496   1.082       .  S
C1492      C1493   1.403       .  A
C1492      H1497   1.083       .  S
C1493      C1494   1.405       .  A
C1494      H1498   1.083       .  S
C1495      C1500   1.407       .  A
C1495      C1504   1.408       .  A
C1500      C1501   1.397       .  A
C1500      H1505   1.082       .  S
C1501      C1502   1.404       .  A
C1501      H1506   1.083       .  S
C1502      C1503   1.404       .  A
C1503      C1504   1.397       .  A
C1503      H1507   1.083       .  S
C1504      H1508   1.082       .  S
C1509      C1510   1.406       .  A
C1509      C1514   1.404       .  A
C1509      H1519   1.083       .  S
C1510      C1515   1.484       .  S
C1510      C1511   1.402       .  A
C1511      C1512   1.394       .  A
C1511      H1516   1.083       .  S
C1512      C1513   1.407       .  A
C1512      H1517   1.082       .  S
C1513      C1514   1.407       .  A
C1514      H1518   1.082       .  S
C1515      C1520   1.403       .  A
C1515      C1524   1.407       .  A
C1520      C1521   1.399       .  A
C1520      H1525   1.083       .  S
C1521      C1522   1.408       .  A
C1521      H1526   1.083       .  S
C1522      C1523   1.401       .  A
C1523      C1524   1.398       .  A
C1523      H1527   1.080       .  S
C1524      H1528   1.083       .  S
C1529      C1530   1.403       .  A
C1529      C1534   1.401       .  A
C1529      H1539   1.083       .  S
C1530      C1535   1.480       .  S
C1530      C1531   1.401       .  A
C1531      C1532   1.395       .  A
C1531      H1536   1.083       .  S
C1532      C1533   1.409       .  A
C1532      H1537   1.082       .  S
C1533      C1534   1.407       .  A
C1534      H1538   1.079       .  S
C1535      C1540   1.404       .  A
C1535      C1544   1.403       .  A
C1540      C1541   1.402       .  A
C1540      H1545   1.083       .  S
C1541      C1542   1.407       .  A
C1541      H1546   1.083       .  S
C1542      C1543   1.406       .  A
C1543      C1544   1.395       .  A
C1543      H1547   1.083       .  S
C1544      H1548   1.083       .  S
C1549      C1550   1.401       .  A
C1549      C1554   1.396       .  A
C1549      H1559   1.083       .  S
C1550      C1555   1.469       .  S
C1550      C1551   1.398       .  A
C1551      C1552   1.393       .  A
C1551      H1556   1.083       .  S
C1552      C1553   1.410       .  A
C1552      H1557   1.082       .  S
C1553      C1554   1.410       .  A
C1554      H1558   1.080       .  S
C1555      C1560   1.400       .  A
C1555      C1564   1.402       .  A
C1560      C1561   1.394       .  A
C1560      H1565   1.083       .  S
C1561      C1562   1.407       .  A
C1561      H1566   1.082       .  S
C1562      C1563   1.405       .  A
C1563      C1564   1.396       .  A
C1563      H1567   1.082       .  S
C1564      H1568   1.083       .  S
C1569      C1570   1.407       .  A
C1569      C1574   1.402       .  A
C1569      H1579   1.084       .  S
C1570      C1575   1.483       .  S
C1570      C1571   1.405       .  A
C1571      C1572   1.393       .  A
C1571      H1576   1.082       .  S
C1572      C1573   1.402       .  A
C1572      H1577   1.085       .  S
C1573      C1574   1.403       .  A
C1574      H1578   1.081       .  S
C1575      C1580   1.403       .  A
C1575      C1584   1.403       .  A
C1580      C1581   1.399       .  A
C1580      H1585   1.084       .  S
C1581      C1582   1.411       .  A
C1581      H1586   1.080       .  S
C1582      C1583   1.409       .  A
C1583      C1584   1.397       .  A
C1583      H1587   1.083       .  S
C1584      H1588   1.083       .  S
C1589      C1590   1.403       .  A
C1589      C1594   1.394       .  A
C1589      H1599   1.083       .  S
C1590      C1595   1.478       .  S
C1590      C1591   1.403       .  A
C1591      C1592   1.393       .  A
C1591      H1596   1.083       .  S
C1592      C1593   1.407       .  A
C1592      H1597   1.083       .  S
C1593      C1594   1.409       .  A
C1594      H1598   1.079       .  S
C1595      C1600   1.405       .  A
C1595      C1604   1.404       .  A
C1600      C1601   1.394       .  A
C1600      H1605   1.083       .  S
C1601      C1602   1.404       .  A
C1601      H1606   1.083       .  S
C1602      C1603   1.405       .  A
C1603      C1604   1.394       .  A
C1603      H1607   1.083       .  S
C1604      H1608   1.083       .  S
C1609      C1610   1.402       .  A
C1609      C1614   1.400       .  A
C1609      H1619   1.083       .  S
C1610      C1615   1.478       .  S
C1610      C1611   1.400       .  A
C1611      C1612   1.397       .  A
C1611      H1616   1.083       .  S
C1612      C1613   1.410       .  A
C1612      H1617   1.083       .  S
C1613      C1614   1.412       .  A
C1614      H1618   1.079       .  S
C1615      C1620   1.401       .  A
C1615      C1624   1.404       .  A
C1620      C1621   1.398       .  A
C1620      H1625   1.083       .  S
C1621      C1622   1.408       .  A
C1621      H1626   1.083       .  S
C1622      C1623   1.406       .  A
C1623      C1624   1.400       .  A
C1623      H1627   1.083       .  S
C1624      H1628   1.083       .  S
C1629      C1630   1.405       .  A
C1629      C1634   1.393       .  A
C1629      H1639   1.083       .  S
C1630      C1635   1.486       .  S
C1630      C1631   1.409       .  A
C1631      C1632   1.403       .  A
C1631      H1636   1.083       .  S
C1632      C1633   1.402       .  A
C1632      H1637   1.083       .  S
C1633      C1634   1.402       .  A
C1634      H1638   1.083       .  S
C1635      C1640   1.406       .  A
C1635      C1644   1.406       .  A
C1640      C1641   1.399       .  A
C1640      H1645   1.083       .  S
C1641      C1642   1.407       .  A
C1641      H1646   1.083       .  S
C1642      C1643   1.405       .  A
C1643      C1644   1.397       .  A
C1643      H1647   1.083       .  S
C1644      H1648   1.083       .  S
C1649      C1650   1.403       .  A
C1649      C1654   1.397       .  A
C1649      H1659   1.083       .  S
C1650      C1655   1.483       .  S
C1650      C1651   1.407       .  A
C1651      C1652   1.398       .  A
C1651      H1656   1.083       .  S
C1652      C1653   1.404       .  A
C1652      H1657   1.083       .  S
C1653      C1654   1.406       .  A
C1654      H1658   1.083       .  S
C1655      C1660   1.406       .  A
C1655      C1664   1.402       .  A
C1660      C1661   1.401       .  A
C1660      H1665   1.083       .  S
C1661      C1662   1.405       .  A
C1661      H1666   1.082       .  S
C1662      C1663   1.407       .  A
C1663      C1664   1.394       .  A
C1663      H1667   1.082       .  S
C1664      H1668   1.083       .  S
C1669      C1670   1.405       .  A
C1669      C1674   1.397       .  A
C1669      H1679   1.082       .  S
C1670      C1675   1.490       .  S
C1670      C1671   1.404       .  A
C1671      C1672   1.399       .  A
C1671      H1676   1.083       .  S
C1672      C1673   1.412       .  A
C1672      H1677   1.076       .  S
C1673      C1674   1.408       .  A
C1674      H1678   1.083       .  S
C1675      C1680   1.406       .  A
C1675      C1684   1.408       .  A
C1680      C1681   1.397       .  A
C1680      H1685   1.083       .  S
C1681      C1682   1.405       .  A
C1681      H1686   1.083       .  S
C1682      C1683   1.406       .  A
C1683      C1684   1.400       .  A
C1683      H1687   1.083       .  S
C1684      H1688   1.083       .  S
C1689      C1690   1.405       .  A
C1689      C1694   1.398       .  A
C1689      H1699   1.082       .  S
C1690      C1695   1.488       .  S
C1690      C1691   1.408       .  A
C1691      C1692   1.398       .  A
C1691      H1696   1.083       .  S
C1692      C1693   1.404       .  A
C1692      H1697   1.083       .  S
C1693      C1694   1.406       .  A
C1694      H1698   1.083       .  S
C1695      C1700   1.408       .  A
C1695      C1704   1.405       .  A
C1700      C1701   1.401       .  A
C1700      H1705   1.083       .  S
C1701      C1702   1.405       .  A
C1701      H1706   1.083       .  S
C1702      C1703   1.405       .  A
C1703      C1704   1.394       .  A
C1703      H1707   1.083       .  S
C1704      H1708   1.083       .  S
C1709      C1710   1.407       .  A
C1709      C1714   1.400       .  A
C1709      H1719   1.083       .  S
C1710      C1715   1.483       .  S
C1710      C1711   1.406       .  A
C1711      C1712   1.392       .  A
C1711      H1716   1.083       .  S
C1712      C1713   1.402       .  A
C1712      H1717   1.084       .  S
C1713      C1714   1.404       .  A
C1714      H1718   1.083       .  S
C1715      C1720   1.406       .  A
C1715      C1724   1.404       .  A
C1720      C1721   1.401       .  A
C1720      H1725   1.083       .  S
C1721      C1722   1.405       .  A
C1721      H1726   1.080       .  S
C1722      C1723   1.405       .  A
C1723      C1724   1.390       .  A
C1723      H1727   1.083       .  S
C1724      H1728   1.082       .  S
C1729      C1730   1.411       .  A
C1729      C1734   1.403       .  A
C1729      H1739   1.082       .  S
C1730      C1735   1.497       .  S
C1730      C1731   1.407       .  A
C1731      C1732   1.396       .  A
C1731      H1736   1.082       .  S
C1732      C1733   1.404       .  A
C1732      H1737   1.083       .  S
C1733      C1734   1.404       .  A
C1734      H1738   1.083       .  S
C1735      C1740   1.409       .  A
C1735      C1744   1.409       .  A
C1740      C1741   1.401       .  A
C1740      H1745   1.082       .  S
C1741      C1742   1.405       .  A
C1741      H1746   1.082       .  S
C1742      C1743   1.403       .  A
C1743      C1744   1.398       .  A
C1743      H1747   1.083       .  S
C1744      H1748   1.082       .  S
C1749      C1750   1.407       .  A
C1749      C1754   1.401       .  A
C1749      H1759   1.083       .  S
C1750      C1755   1.488       .  S
C1750      C1751   1.406       .  A
C1751      C1752   1.395       .  A
C1751      H1756   1.083       .  S
C1752      C1753   1.405       .  A
C1752      H1757   1.083       .  S
C1753      C1754   1.406       .  A
C1754      H1758   1.083       .  S
C1755      C1760   1.407       .  A
C1755      C1764   1.407       .  A
C1760      C1761   1.399       .  A
C1760      H1765   1.082       .  S
C1761      C1762   1.401       .  A
C1761      H1766   1.080       .  S
C1762      C1763   1.403       .  A
C1763      C1764   1.395       .  A
C1763      H1767   1.083       .  S
C1764      H1768   1.083       .  S
C1769      C1770   1.407       .  A
C1769      C1774   1.401       .  A
C1769      H1779   1.083       .  S
C1770      C1775   1.490       .  S
C1770      C1771   1.406       .  A
C1771      C1772   1.398       .  A
C1771      H1776   1.083       .  S
C1772      C1773   1.405       .  A
C1772      H1777   1.083       .  S
C1773      C1774   1.405       .  A
C1774      H1778   1.083       .  S
C1775      C1780   1.407       .  A
C1775      C1784   1.407       .  A
C1780      C1781   1.401       .  A
C1780      H1785   1.083       .  S
C1781      C1782   1.405       .  A
C1781      H1786   1.083       .  S
C1782      C1783   1.405       .  A
C1783      C1784   1.398       .  A
C1783      H1787   1.083       .  S
C1784      H1788   1.083       .  S
C1789      C1790   1.409       .  A
C1789      C1794   1.402       .  A
C1789      H1799   1.082       .  S
C1790      C1795   1.497       .  S
C1790      C1791   1.409       .  A
C1791      C1792   1.397       .  A
C1791      H1796   1.082       .  S
C1792      C1793   1.404       .  A
C1792      H1797   1.083       .  S
C1793      C1794   1.406       .  A
C1794      H1798   1.083       .  S
C1795      C1800   1.411       .  A
C1795      C1804   1.407       .  A
C1800      C1801   1.403       .  A
C1800      H1805   1.082       .  S
C1801      C1802   1.405       .  A
C1801      H1806   1.083       .  S
C1802      C1803   1.404       .  A
C1803      C1804   1.394       .  A
C1803      H1807   1.083       .  S
C1804      H1808   1.082       .  S
C1809      C1810   1.403       .  A
C1809      C1814   1.394       .  A
C1809      H1819   1.083       .  S
C1810      C1815   1.480       .  S
C1810      C1811   1.407       .  A
C1811      C1812   1.394       .  A
C1811      H1816   1.083       .  S
C1812      C1813   1.402       .  A
C1812      H1817   1.083       .  S
C1813      C1814   1.406       .  A
C1814      H1818   1.083       .  S
C1815      C1820   1.407       .  A
C1815      C1824   1.403       .  A
C1820      C1821   1.398       .  A
C1820      H1825   1.083       .  S
C1821      C1822   1.403       .  A
C1821      H1826   1.083       .  S
C1822      C1823   1.403       .  A
C1823      C1824   1.391       .  A
C1823      H1827   1.083       .  S
C1824      H1828   1.083       .  S
C1829      C1830   1.402       .  A
C1829      C1834   1.393       .  A
C1829      H1839   1.083       .  S
C1830      C1835   1.479       .  S
C1830      C1831   1.403       .  A
C1831      C1832   1.396       .  A
C1831      H1836   1.083       .  S
C1832      C1833   1.408       .  A
C1832      H1837   1.083       .  S
C1833      C1834   1.410       .  A
C1834      H1838   1.077       .  S
C1835      C1840   1.405       .  A
C1835      C1844   1.404       .  A
C1840      C1841   1.397       .  A
C1840      H1845   1.083       .  S
C1841      C1842   1.406       .  A
C1841      H1846   1.083       .  S
C1842      C1843   1.404       .  A
C1843      C1844   1.392       .  A
C1843      H1847   1.083       .  S
C1844      H1848   1.083       .  S
C1849      C1850   1.408       .  A
C1849      C1854   1.399       .  A
C1849      H1859   1.082       .  S
C1850      C1855   1.494       .  S
C1850      C1851   1.408       .  A
C1851      C1852   1.398       .  A
C1851      H1856   1.082       .  S
C1852      C1853   1.405       .  A
C1852      H1857   1.083       .  S
C1853      C1854   1.405       .  A
C1854      H1858   1.083       .  S
C1855      C1860   1.409       .  A
C1855      C1864   1.408       .  A
C1860      C1861   1.400       .  A
C1860      H1865   1.082       .  S
C1861      C1862   1.404       .  A
C1861      H1866   1.083       .  S
C1862      C1863   1.404       .  A
C1863      C1864   1.397       .  A
C1863      H1867   1.083       .  S
C1864      H1868   1.082       .  S
C1869      C1870   1.403       .  A
C1869      C1874   1.394       .  A
C1869      H1879   1.083       .  S
C1870      C1875   1.476       .  S
C1870      C1871   1.403       .  A
C1871      C1872   1.400       .  A
C1871      H1876   1.083       .  S
C1872      C1873   1.406       .  A
C1872      H1877   1.083       .  S
C1873      C1874   1.405       .  A
C1874      H1878   1.083       .  S
C1875      C1880   1.401       .  A
C1875      C1884   1.404       .  A
C1880      C1881   1.393       .  A
C1880      H1885   1.083       .  S
C1881      C1882   1.406       .  A
C1881      H1886   1.082       .  S
C1882      C1883   1.405       .  A
C1883      C1884   1.400       .  A
C1883      H1887   1.082       .  S
C1884      H1888   1.083       .  S
C1889      C1890   1.404       .  A
C1889      C1894   1.396       .  A
C1889      H1899   1.083       .  S
C1890      C1895   1.480       .  S
C1890      C1891   1.404       .  A
C1891      C1892   1.397       .  A
C1891      H1896   1.083       .  S
C1892      C1893   1.406       .  A
C1892      H1897   1.082       .  S
C1893      C1894   1.406       .  A
C1894      H1898   1.082       .  S
C1895      C1900   1.405       .  A
C1895      C1904   1.404       .  A
C1900      C1901   1.399       .  A
C1900      H1905   1.083       .  S
C1901      C1902   1.405       .  A
C1901      H1906   1.083       .  S
C1902      C1903   1.404       .  A
C1903      C1904   1.395       .  A
C1903      H1907   1.083       .  S
C1904      H1908   1.083       .  S
C1909      C1910   1.402       .  A
C1909      C1914   1.394       .  A
C1909      H1919   1.083       .  S
C1910      C1915   1.480       .  S
C1910      C1911   1.402       .  A
C1911      C1912   1.398       .  A
C1911      H1916   1.083       .  S
C1912      C1913   1.411       .  A
C1912      H1917   1.077       .  S
C1913      C1914   1.408       .  A
C1914      H1918   1.083       .  S
C1915      C1920   1.403       .  A
C1915      C1924   1.405       .  A
C1920      C1921   1.394       .  A
C1920      H1925   1.083       .  S
C1921      C1922   1.405       .  A
C1921      H1926   1.083       .  S
C1922      C1923   1.406       .  A
C1923      C1924   1.399       .  A
C1923      H1927   1.083       .  S
C1924      H1928   1.083       .  S
C1929      C1930   1.406       .  A
C1929      C1934   1.397       .  A
C1929      H1939   1.083       .  S
C1930      C1935   1.483       .  S
C1930      C1931   1.405       .  A
C1931      C1932   1.395       .  A
C1931      H1936   1.083       .  S
C1932      C1933   1.404       .  A
C1932      H1937   1.083       .  S
C1933      C1934   1.404       .  A
C1934      H1938   1.083       .  S
C1935      C1940   1.406       .  A
C1935      C1944   1.406       .  A
C1940      C1941   1.398       .  A
C1940      H1945   1.083       .  S
C1941      C1942   1.404       .  A
C1941      H1946   1.083       .  S
C1942      C1943   1.403       .  A
C1943      C1944   1.395       .  A
C1943      H1947   1.083       .  S
C1944      H1948   1.083       .  S
C1949      C1950   1.407       .  A
C1949      C1954   1.399       .  A
C1949      H1959   1.082       .  S
C1950      C1955   1.490       .  S
C1950      C1951   1.407       .  A
C1951      C1952   1.396       .  A
C1951      H1956   1.082       .  S
C1952      C1953   1.404       .  A
C1952      H1957   1.083       .  S
C1953      C1954   1.405       .  A
C1954      H1958   1.083       .  S
C1955      C1960   1.406       .  A
C1955      C1964   1.408       .  A
C1960      C1961   1.396       .  A
C1960      H1965   1.082       .  S
C1961      C1962   1.404       .  A
C1961      H1966   1.083       .  S
C1962      C1963   1.404       .  A
C1963      C1964   1.400       .  A
C1963      H1967   1.083       .  S
C1964      H1968   1.082       .  S
C1969      C1970   1.409       .  A
C1969      C1974   1.399       .  A
C1969      H1979   1.082       .  S
C1970      C1975   1.496       .  S
C1970      C1971   1.408       .  A
C1971      C1972   1.401       .  A
C1971      H1976   1.082       .  S
C1972      C1973   1.406       .  A
C1972      H1977   1.083       .  S
C1973      C1974   1.405       .  A
C1974      H1978   1.083       .  S
C1975      C1980   1.408       .  A
C1975      C1984   1.409       .  A
C1980      C1981   1.398       .  A
C1980      H1985   1.082       .  S
C1981      C1982   1.404       .  A
C1981      H1986   1.083       .  S
C1982      C1983   1.405       .  A
C1983      C1984   1.403       .  A
C1983      H1987   1.083       .  S
C1984      H1988   1.082       .  S
C1989      C1990   1.405       .  A
C1989      C1994   1.393       .  A
C1989      H1999   1.083       .  S
C1990      C1995   1.477       .  S
C1990      C1991   1.403       .  A
C1991      C1992   1.395       .  A
C1991      H1996   1.083       .  S
C1992      C1993   1.406       .  A
C1992      H1997   1.083       .  S
C1993      C1994   1.403       .  A
C1994      H1998   1.083       .  S
C1995      C2000   1.401       .  A
C1995      C2004   1.402       .  A
C2000      C2001   1.392       .  A
C2000      H2005   1.083       .  S
C2001      C2002   1.410       .  A
C2001      H2006   1.076       .  S
C2002      C2003   1.409       .  A
C2003      C2004   1.395       .  A
C2003      H2007   1.083       .  S
C2004      H2008   1.083       .  S
C2009      C2010   1.405       .  A
C2009      C2014   1.403       .  A
C2009      H2019   1.083       .  S
C2010      C2015   1.480       .  S
C2010      C2011   1.400       .  A
C2011      C2012   1.389       .  A
C2011      H2016   1.083       .  S
C2012      C2013   1.409       .  A
C2012      H2017   1.080       .  S
C2013      C2014   1.408       .  A
C2014      H2018   1.080       .  S
C2015      C2020   1.405       .  A
C2015      C2024   1.404       .  A
C2020      C2021   1.401       .  A
C2020      H2025   1.083       .  S
C2021      C2022   1.407       .  A
C2021      H2026   1.083       .  S
C2022      C2023   1.404       .  A
C2023      C2024   1.391       .  A
C2023      H2027   1.083       .  S
C2024      H2028   1.083       .  S
C2029      C2030   1.406       .  A
C2029      C2034   1.400       .  A
C2029      H2039   1.083       .  S
C2030      C2035   1.486       .  S
C2030      C2031   1.403       .  A
C2031      C2032   1.392       .  A
C2031      H2036   1.083       .  S
C2032      C2033   1.409       .  A
C2032      H2037   1.084       .  S
C2033      C2034   1.408       .  A
C2034      H2038   1.078       .  S
C2035      C2040   1.404       .  A
C2035      C2044   1.406       .  A
C2040      C2041   1.393       .  A
C2040      H2045   1.083       .  S
C2041      C2042   1.408       .  A
C2041      H2046   1.082       .  S
C2042      C2043   1.405       .  A
C2043      C2044   1.399       .  A
C2043      H2047   1.079       .  S
C2044      H2048   1.082       .  S
C2049      C2050   1.407       .  A
C2049      C2054   1.400       .  A
C2049      H2059   1.083       .  S
C2050      C2055   1.483       .  S
C2050      C2051   1.406       .  A
C2051      C2052   1.391       .  A
C2051      H2056   1.083       .  S
C2052      C2053   1.401       .  A
C2052      H2057   1.084       .  S
C2053      C2054   1.401       .  A
C2054      H2058   1.079       .  S
C2055      C2060   1.407       .  A
C2055      C2064   1.404       .  A
C2060      C2061   1.398       .  A
C2060      H2065   1.083       .  S
C2061      C2062   1.405       .  A
C2061      H2066   1.083       .  S
C2062      C2063   1.405       .  A
C2063      C2064   1.394       .  A
C2063      H2067   1.083       .  S
C2064      H2068   1.083       .  S
C2069      C2070   1.406       .  A
C2069      C2074   1.391       .  A
C2069      H2079   1.082       .  S
C2070      C2075   1.487       .  S
C2070      C2071   1.408       .  A
C2071      C2072   1.400       .  A
C2071      H2076   1.082       .  S
C2072      C2073   1.403       .  A
C2072      H2077   1.083       .  S
C2073      C2074   1.403       .  A
C2074      H2078   1.083       .  S
C2075      C2080   1.404       .  A
C2075      C2084   1.408       .  A
C2080      C2081   1.391       .  A
C2080      H2085   1.082       .  S
C2081      C2082   1.406       .  A
C2081      H2086   1.082       .  S
C2082      C2083   1.405       .  A
C2083      C2084   1.400       .  A
C2083      H2087   1.082       .  S
C2084      H2088   1.082       .  S
C2089      C2090   1.405       .  A
C2089      C2094   1.399       .  A
C2089      H2099   1.082       .  S
C2090      C2095   1.494       .  S
C2090      C2091   1.406       .  A
C2091      C2092   1.402       .  A
C2091      H2096   1.083       .  S
C2092      C2093   1.412       .  A
C2092      H2097   1.077       .  S
C2093      C2094   1.409       .  A
C2094      H2098   1.083       .  S
C2095      C2100   1.408       .  A
C2095      C2104   1.407       .  A
C2100      C2101   1.401       .  A
C2100      H2105   1.083       .  S
C2101      C2102   1.406       .  A
C2101      H2106   1.083       .  S
C2102      C2103   1.407       .  A
C2103      C2104   1.401       .  A
C2103      H2107   1.083       .  S
C2104      H2108   1.083       .  S
C2109      C2110   1.404       .  A
C2109      C2114   1.398       .  A
C2109      H2119   1.083       .  S
C2110      C2115   1.483       .  S
C2110      C2111   1.402       .  A
C2111      C2112   1.395       .  A
C2111      H2116   1.083       .  S
C2112      C2113   1.410       .  A
C2112      H2117   1.083       .  S
C2113      C2114   1.409       .  A
C2114      H2118   1.077       .  S
C2115      C2120   1.405       .  A
C2115      C2124   1.405       .  A
C2120      C2121   1.397       .  A
C2120      H2125   1.083       .  S
C2121      C2122   1.405       .  A
C2121      H2126   1.083       .  S
C2122      C2123   1.407       .  A
C2123      C2124   1.397       .  A
C2123      H2127   1.083       .  S
C2124      H2128   1.083       .  S
C2129      C2130   1.408       .  A
C2129      C2134   1.397       .  A
C2129      H2139   1.082       .  S
C2130      C2135   1.501       .  S
C2130      C2131   1.411       .  A
C2131      C2132   1.405       .  A
C2131      H2136   1.082       .  S
C2132      C2133   1.406       .  A
C2132      H2137   1.083       .  S
C2133      C2134   1.406       .  A
C2134      H2138   1.083       .  S
C2135      C2140   1.411       .  A
C2135      C2144   1.410       .  A
C2140      C2141   1.399       .  A
C2140      H2145   1.082       .  S
C2141      C2142   1.402       .  A
C2141      H2146   1.083       .  S
C2142      C2143   1.403       .  A
C2143      C2144   1.402       .  A
C2143      H2147   1.083       .  S
C2144      H2148   1.082       .  S
C2149      C2150   1.404       .  A
C2149      C2154   1.396       .  A
C2149      H2159   1.083       .  S
C2150      C2155   1.486       .  S
C2150      C2151   1.404       .  A
C2151      C2152   1.398       .  A
C2151      H2156   1.083       .  S
C2152      C2153   1.411       .  A
C2152      H2157   1.077       .  S
C2153      C2154   1.409       .  A
C2154      H2158   1.083       .  S
C2155      C2160   1.409       .  A
C2155      C2164   1.406       .  A
C2160      C2161   1.401       .  A
C2160      H2165   1.083       .  S
C2161      C2162   1.400       .  A
C2161      H2166   1.083       .  S
C2162      C2163   1.400       .  A
C2163      C2164   1.394       .  A
C2163      H2167   1.084       .  S
C2164      H2168   1.083       .  S
C2169      C2170   1.405       .  A
C2169      C2174   1.402       .  A
C2169      H2179   1.083       .  S
C2170      C2175   1.480       .  S
C2170      C2171   1.403       .  A
C2171      C2172   1.395       .  A
C2171      H2176   1.083       .  S
C2172      C2173   1.403       .  A
C2172      H2177   1.083       .  S
C2173      C2174   1.405       .  A
C2174      H2178   1.083       .  S
C2175      C2180   1.402       .  A
C2175      C2184   1.405       .  A
C2180      C2181   1.395       .  A
C2180      H2185   1.083       .  S
C2181      C2182   1.406       .  A
C2181      H2186   1.083       .  S
C2182      C2183   1.407       .  A
C2183      C2184   1.402       .  A
C2183      H2187   1.083       .  S
C2184      H2188   1.083       .  S
C2189      C2190   1.408       .  A
C2189      C2194   1.399       .  A
C2189      H2199   1.082       .  S
C2190      C2195   1.491       .  S
C2190      C2191   1.406       .  A
C2191      C2192   1.399       .  A
C2191      H2196   1.083       .  S
C2192      C2193   1.407       .  A
C2192      H2197   1.083       .  S
C2193      C2194   1.404       .  A
C2194      H2198   1.083       .  S
C2195      C2200   1.406       .  A
C2195      C2204   1.409       .  A
C2200      C2201   1.397       .  A
C2200      H2205   1.082       .  S
C2201      C2202   1.404       .  A
C2201      H2206   1.083       .  S
C2202      C2203   1.405       .  A
C2203      C2204   1.401       .  A
C2203      H2207   1.083       .  S
C2204      H2208   1.083       .  S
C2209      C2210   1.406       .  A
C2209      C2214   1.400       .  A
C2209      H2219   1.083       .  S
C2210      C2215   1.493       .  S
C2210      C2211   1.407       .  A
C2211      C2212   1.404       .  A
C2211      H2216   1.083       .  S
C2212      C2213   1.407       .  A
C2212      H2217   1.083       .  S
C2213      C2214   1.407       .  A
C2214      H2218   1.083       .  S
C2215      C2220   1.404       .  A
C2215      C2224   1.407       .  A
C2220      C2221   1.400       .  A
C2220      H2225   1.083       .  S
C2221      C2222   1.411       .  A
C2221      H2226   1.082       .  S
C2222      C2223   1.405       .  A
C2223      C2224   1.403       .  A
C2223      H2227   1.079       .  S
C2224      H2228   1.082       .  S
C2229      C2230   1.406       .  A
C2229      C2234   1.393       .  A
C2229      H2239   1.083       .  S
C2230      C2235   1.486       .  S
C2230      C2231   1.407       .  A
C2231      C2232   1.402       .  A
C2231      H2236   1.083       .  S
C2232      C2233   1.406       .  A
C2232      H2237   1.083       .  S
C2233      C2234   1.403       .  A
C2234      H2238   1.083       .  S
C2235      C2240   1.406       .  A
C2235      C2244   1.407       .  A
C2240      C2241   1.393       .  A
C2240      H2245   1.083       .  S
C2241      C2242   1.402       .  A
C2241      H2246   1.083       .  S
C2242      C2243   1.404       .  A
C2243      C2244   1.403       .  A
C2243      H2247   1.083       .  S
C2244      H2248   1.083       .  S
C2249      C2250   1.405       .  A
C2249      C2254   1.396       .  A
C2249      H2259   1.083       .  S
C2250      C2255   1.487       .  S
C2250      C2251   1.407       .  A
C2251      C2252   1.400       .  A
C2251      H2256   1.083       .  S
C2252      C2253   1.405       .  A
C2252      H2257   1.083       .  S
C2253      C2254   1.405       .  A
C2254      H2258   1.083       .  S
C2255      C2260   1.407       .  A
C2255      C2264   1.406       .  A
C2260      C2261   1.397       .  A
C2260      H2265   1.083       .  S
C2261      C2262   1.402       .  A
C2261      H2266   1.083       .  S
C2262      C2263   1.405       .  A
C2263      C2264   1.398       .  A
C2263      H2267   1.083       .  S
C2264      H2268   1.083       .  S
C2269      C2270   1.409       .  A
C2269      C2274   1.403       .  A
C2269      H2279   1.082       .  S
C2270      C2275   1.498       .  S
C2270      C2271   1.409       .  A
C2271      C2272   1.399       .  A
C2271      H2276   1.082       .  S
C2272      C2273   1.405       .  A
C2272      H2277   1.083       .  S
C2273      C2274   1.406       .  A
C2274      H2278   1.083       .  S
C2275      C2280   1.410       .  A
C2275      C2284   1.408       .  A
C2280      C2281   1.404       .  A
C2280      H2285   1.082       .  S
C2281      C2282   1.406       .  A
C2281      H2286   1.083       .  S
C2282      C2283   1.405       .  A
C2283      C2284   1.398       .  A
C2283      H2287   1.083       .  S
C2284      H2288   1.082       .  S
C2289      C2290   1.406       .  A
C2289      C2294   1.394       .  A
C2289      H2299   1.083       .  S
C2290      C2295   1.478       .  S
C2290      C2291   1.404       .  A
C2291      C2292   1.392       .  A
C2291      H2296   1.083       .  S
C2292      C2293   1.403       .  A
C2292      H2297   1.083       .  S
C2293      C2294   1.402       .  A
C2294      H2298   1.083       .  S
C2295      C2300   1.405       .  A
C2295      C2304   1.404       .  A
C2300      C2301   1.393       .  A
C2300      H2305   1.083       .  S
C2301      C2302   1.404       .  A
C2301      H2306   1.083       .  S
C2302      C2303   1.403       .  A
C2303      C2304   1.392       .  A
C2303      H2307   1.083       .  S
C2304      H2308   1.083       .  S
C2309      C2310   1.403       .  A
C2309      C2314   1.398       .  A
C2309      H2319   1.083       .  S
C2310      C2315   1.483       .  S
C2310      C2311   1.403       .  A
C2311      C2312   1.399       .  A
C2311      H2316   1.083       .  S
C2312      C2313   1.409       .  A
C2312      H2317   1.080       .  S
C2313      C2314   1.410       .  A
C2314      H2318   1.081       .  S
C2315      C2320   1.405       .  A
C2315      C2324   1.404       .  A
C2320      C2321   1.400       .  A
C2320      H2325   1.083       .  S
C2321      C2322   1.406       .  A
C2321      H2326   1.083       .  S
C2322      C2323   1.406       .  A
C2323      C2324   1.397       .  A
C2323      H2327   1.083       .  S
C2324      H2328   1.083       .  S
C2329      C2330   1.406       .  A
C2329      C2334   1.396       .  A
C2329      H2339   1.083       .  S
C2330      C2335   1.485       .  S
C2330      C2331   1.407       .  A
C2331      C2332   1.397       .  A
C2331      H2336   1.083       .  S
C2332      C2333   1.403       .  A
C2332      H2337   1.083       .  S
C2333      C2334   1.404       .  A
C2334      H2338   1.083       .  S
C2335      C2340   1.406       .  A
C2335      C2344   1.406       .  A
C2340      C2341   1.397       .  A
C2340      H2345   1.083       .  S
C2341      C2342   1.405       .  A
C2341      H2346   1.083       .  S
C2342      C2343   1.405       .  A
C2343      C2344   1.396       .  A
C2343      H2347   1.083       .  S
C2344      H2348   1.083       .  S
C2349      C2350   1.404       .  A
C2349      C2354   1.395       .  A
C2349      H2359   1.083       .  S
C2350      C2355   1.487       .  S
C2350      C2351   1.408       .  A
C2351      C2352   1.401       .  A
C2351      H2356   1.083       .  S
C2352      C2353   1.405       .  A
C2352      H2357   1.083       .  S
C2353      C2354   1.406       .  A
C2354      H2358   1.083       .  S
C2355      C2360   1.405       .  A
C2355      C2364   1.403       .  A
C2360      C2361   1.397       .  A
C2360      H2365   1.083       .  S
C2361      C2362   1.408       .  A
C2361      H2366   1.083       .  S
C2362      C2363   1.412       .  A
C2363      C2364   1.398       .  A
C2363      H2367   1.077       .  S
C2364      H2368   1.083       .  S
C2369      C2370   1.405       .  A
C2369      C2374   1.400       .  A
C2369      H2379   1.083       .  S
C2370      C2375   1.483       .  S
C2370      C2371   1.405       .  A
C2371      C2372   1.394       .  A
C2371      H2376   1.083       .  S
C2372      C2373   1.404       .  A
C2372      H2377   1.083       .  S
C2373      C2374   1.407       .  A
C2374      H2378   1.083       .  S
C2375      C2380   1.403       .  A
C2375      C2384   1.402       .  A
C2380      C2381   1.398       .  A
C2380      H2385   1.083       .  S
C2381      C2382   1.410       .  A
C2381      H2386   1.083       .  S
C2382      C2383   1.410       .  A
C2383      C2384   1.394       .  A
C2383      H2387   1.076       .  S
C2384      H2388   1.083       .  S
C2389      C2390   1.403       .  A
C2389      C2394   1.393       .  A
C2389      H2399   1.083       .  S
C2390      C2395   1.483       .  S
C2390      C2391   1.404       .  A
C2391      C2392   1.399       .  A
C2391      H2396   1.083       .  S
C2392      C2393   1.409       .  A
C2392      H2397   1.078       .  S
C2393      C2394   1.408       .  A
C2394      H2398   1.081       .  S
C2395      C2400   1.405       .  A
C2395      C2404   1.406       .  A
C2400      C2401   1.392       .  A
C2400      H2405   1.083       .  S
C2401      C2402   1.404       .  A
C2401      H2406   1.083       .  S
C2402      C2403   1.405       .  A
C2403      C2404   1.400       .  A
C2403      H2407   1.083       .  S
C2404      H2408   1.083       .  S
C2409      C2410   1.407       .  A
C2409      C2414   1.400       .  A
C2409      H2419   1.083       .  S
C2410      C2415   1.486       .  S
C2410      C2411   1.405       .  A
C2411      C2412   1.395       .  A
C2411      H2416   1.083       .  S
C2412      C2413   1.405       .  A
C2412      H2417   1.083       .  S
C2413      C2414   1.404       .  A
C2414      H2418   1.083       .  S
C2415      C2420   1.406       .  A
C2415      C2424   1.406       .  A
C2420      C2421   1.399       .  A
C2420      H2425   1.083       .  S
C2421      C2422   1.405       .  A
C2421      H2426   1.083       .  S
C2422      C2423   1.405       .  A
C2423      C2424   1.396       .  A
C2423      H2427   1.083       .  S
C2424      H2428   1.083       .  S
C2429      C2430   1.406       .  A
C2429      C2434   1.394       .  A
C2429      H2439   1.083       .  S
C2430      C2435   1.486       .  S
C2430      C2431   1.407       .  A
C2431      C2432   1.399       .  A
C2431      H2436   1.082       .  S
C2432      C2433   1.404       .  A
C2432      H2437   1.083       .  S
C2433      C2434   1.404       .  A
C2434      H2438   1.083       .  S
C2435      C2440   1.407       .  A
C2435      C2444   1.406       .  A
C2440      C2441   1.395       .  A
C2440      H2445   1.083       .  S
C2441      C2442   1.403       .  A
C2441      H2446   1.083       .  S
C2442      C2443   1.405       .  A
C2443      C2444   1.398       .  A
C2443      H2447   1.083       .  S
C2444      H2448   1.082       .  S
C2449      C2450   1.410       .  A
C2449      C2454   1.400       .  A
C2449      H2459   1.082       .  S
C2450      C2455   1.491       .  S
C2450      C2451   1.406       .  A
C2451      C2452   1.393       .  A
C2451      H2456   1.082       .  S
C2452      C2453   1.403       .  A
C2452      H2457   1.083       .  S
C2453      C2454   1.403       .  A
C2454      H2458   1.083       .  S
C2455      C2460   1.407       .  A
C2455      C2464   1.409       .  A
C2460      C2461   1.398       .  A
C2460      H2465   1.082       .  S
C2461      C2462   1.406       .  A
C2461      H2466   1.083       .  S
C2462      C2463   1.402       .  A
C2463      C2464   1.395       .  A
C2463      H2467   1.083       .  S
C2464      H2468   1.082       .  S
C2469      C2470   1.405       .  A
C2469      C2474   1.397       .  A
C2469      H2479   1.083       .  S
C2470      C2475   1.484       .  S
C2470      C2471   1.406       .  A
C2471      C2472   1.394       .  A
C2471      H2476   1.083       .  S
C2472      C2473   1.403       .  A
C2472      H2477   1.082       .  S
C2473      C2474   1.405       .  A
C2474      H2478   1.082       .  S
C2475      C2480   1.404       .  A
C2475      C2484   1.403       .  A
C2480      C2481   1.396       .  A
C2480      H2485   1.083       .  S
C2481      C2482   1.409       .  A
C2481      H2486   1.079       .  S
C2482      C2483   1.409       .  A
C2483      C2484   1.395       .  A
C2483      H2487   1.082       .  S
C2484      H2488   1.083       .  S
C2489      C2490   1.402       .  A
C2489      C2494   1.394       .  A
C2489      H2499   1.083       .  S
C2490      C2495   1.482       .  S
C2490      C2491   1.404       .  A
C2491      C2492   1.400       .  A
C2491      H2496   1.083       .  S
C2492      C2493   1.408       .  A
C2492      H2497   1.081       .  S
C2493      C2494   1.409       .  A
C2494      H2498   1.081       .  S
C2495      C2500   1.405       .  A
C2495      C2504   1.404       .  A
C2500      C2501   1.402       .  A
C2500      H2505   1.083       .  S
C2501      C2502   1.407       .  A
C2501      H2506   1.083       .  S
C2502      C2503   1.404       .  A
C2503      C2504   1.393       .  A
C2503      H2507   1.083       .  S
C2504      H2508   1.083       .  S
C2509      C2510   1.403       .  A
C2509      C2514   1.394       .  A
C2509      H2519   1.083       .  S
C2510      C2515   1.489       .  S
C2510      C2511   1.407       .  A
C2511      C2512   1.402       .  A
C2511      H2516   1.083       .  S
C2512      C2513   1.410       .  A
C2512      H2517   1.078       .  S
C2513      C2514   1.408       .  A
C2514      H2518   1.083       .  S
C2515      C2520   1.407       .  A
C2515      C2524   1.406       .  A
C2520      C2521   1.398       .  A
C2520      H2525   1.083       .  S
C2521      C2522   1.405       .  A
C2521      H2526   1.083       .  S
C2522      C2523   1.406       .  A
C2523      C2524   1.399       .  A
C2523      H2527   1.083       .  S
C2524      H2528   1.083       .  S
C2529      C2530   1.403       .  A
C2529      C2534   1.393       .  A
C2529      H2539   1.083       .  S
C2530      C2535   1.481       .  S
C2530      C2531   1.406       .  A
C2531      C2532   1.401       .  A
C2531      H2536   1.083       .  S
C2532      C2533   1.405       .  A
C2532      H2537   1.083       .  S
C2533      C2534   1.405       .  A
C2534      H2538   1.083       .  S
C2535      C2540   1.408       .  A
C2535      C2544   1.403       .  A
C2540      C2541   1.399       .  A
C2540      H2545   1.083       .  S
C2541      C2542   1.402       .  A
C2541      H2546   1.083       .  S
C2542      C2543   1.405       .  A
C2543      C2544   1.395       .  A
C2543      H2547   1.083       .  S
C2544      H2548   1.083       .  S
C2549      C2550   1.402       .  A
C2549      C2554   1.395       .  A
C2549      H2559   1.083       .  S
C2550      C2555   1.481       .  S
C2550      C2551   1.405       .  A
C2551      C2552   1.405       .  A
C2551      H2556   1.083       .  S
C2552      C2553   1.408       .  A
C2552      H2557   1.083       .  S
C2553      C2554   1.407       .  A
C2554      H2558   1.083       .  S
C2555      C2560   1.401       .  A
C2555      C2564   1.404       .  A
C2560      C2561   1.396       .  A
C2560      H2565   1.083       .  S
C2561      C2562   1.409       .  A
C2561      H2566   1.081       .  S
C2562      C2563   1.409       .  A
C2563      C2564   1.405       .  A
C2563      H2567   1.082       .  S
C2564      H2568   1.083       .  S
C2569      C2570   1.403       .  A
C2569      C2574   1.393       .  A
C2569      H2579   1.082       .  S
C2570      C2575   1.486       .  S
C2570      C2571   1.406       .  A
C2571      C2572   1.398       .  A
C2571      H2576   1.083       .  S
C2572      C2573   1.408       .  A
C2572      H2577   1.078       .  S
C2573      C2574   1.409       .  A
C2574      H2578   1.083       .  S
C2575      C2580   1.407       .  A
C2575      C2584   1.406       .  A
C2580      C2581   1.397       .  A
C2580      H2585   1.083       .  S
C2581      C2582   1.405       .  A
C2581      H2586   1.083       .  S
C2582      C2583   1.404       .  A
C2583      C2584   1.395       .  A
C2583      H2587   1.083       .  S
C2584      H2588   1.082       .  S
C2589      C2590   1.406       .  A
C2589      C2594   1.397       .  A
C2589      H2599   1.083       .  S
C2590      C2595   1.482       .  S
C2590      C2591   1.406       .  A
C2591      C2592   1.399       .  A
C2591      H2596   1.083       .  S
C2592      C2593   1.401       .  A
C2592      H2597   1.084       .  S
C2593      C2594   1.401       .  A
C2594      H2598   1.083       .  S
C2595      C2600   1.406       .  A
C2595      C2604   1.405       .  A
C2600      C2601   1.403       .  A
C2600      H2605   1.083       .  S
C2601      C2602   1.405       .  A
C2601      H2606   1.083       .  S
C2602      C2603   1.403       .  A
C2603      C2604   1.394       .  A
C2603      H2607   1.083       .  S
C2604      H2608   1.083       .  S
C2609      C2610   1.408       .  A
C2609      C2614   1.399       .  A
C2609      H2619   1.083       .  S
C2610      C2615   1.484       .  S
C2610      C2611   1.403       .  A
C2611      C2612   1.395       .  A
C2611      H2616   1.083       .  S
C2612      C2613   1.407       .  A
C2612      H2617   1.083       .  S
C2613      C2614   1.404       .  A
C2614      H2618   1.083       .  S
C2615      C2620   1.401       .  A
C2615      C2624   1.406       .  A
C2620      C2621   1.393       .  A
C2620      H2625   1.083       .  S
C2621      C2622   1.409       .  A
C2621      H2626   1.084       .  S
C2622      C2623   1.408       .  A
C2623      C2624   1.400       .  A
C2623      H2627   1.078       .  S
C2624      H2628   1.083       .  S
C2629      C2630   1.403       .  A
C2629      C2634   1.395       .  A
C2629      H2639   1.083       .  S
C2630      C2635   1.480       .  S
C2630      C2631   1.404       .  A
C2631      C2632   1.401       .  A
C2631      H2636   1.083       .  S
C2632      C2633   1.407       .  A
C2632      H2637   1.083       .  S
C2633      C2634   1.405       .  A
C2634      H2638   1.083       .  S
C2635      C2640   1.404       .  A
C2635      C2644   1.403       .  A
C2640      C2641   1.401       .  A
C2640      H2645   1.083       .  S
C2641      C2642   1.406       .  A
C2641      H2646   1.082       .  S
C2642      C2643   1.406       .  A
C2643      C2644   1.396       .  A
C2643      H2647   1.083       .  S
C2644      H2648   1.083       .  S
C2649      C2650   1.410       .  A
C2649      C2654   1.402       .  A
C2649      H2659   1.082       .  S
C2650      C2655   1.498       .  S
C2650      C2651   1.408       .  A
C2651      C2652   1.395       .  A
C2651      H2656   1.082       .  S
C2652      C2653   1.405       .  A
C2652      H2657   1.082       .  S
C2653      C2654   1.405       .  A
C2654      H2658   1.082       .  S
C2655      C2660   1.411       .  A
C2655      C2664   1.409       .  A
C2660      C2661   1.402       .  A
C2660      H2665   1.082       .  S
C2661      C2662   1.404       .  A
C2661      H2666   1.083       .  S
C2662      C2663   1.404       .  A
C2663      C2664   1.396       .  A
C2663      H2667   1.083       .  S
C2664      H2668   1.082       .  S
C2669      C2670   1.407       .  A
C2669      C2674   1.396       .  A
C2669      H2679   1.082       .  S
C2670      C2675   1.493       .  S
C2670      C2671   1.409       .  A
C2671      C2672   1.403       .  A
C2671      H2676   1.082       .  S
C2672      C2673   1.405       .  A
C2672      H2677   1.083       .  S
C2673      C2674   1.405       .  A
C2674      H2678   1.083       .  S
C2675      C2680   1.407       .  A
C2675      C2684   1.408       .  A
C2680      C2681   1.396       .  A
C2680      H2685   1.082       .  S
C2681      C2682   1.405       .  A
C2681      H2686   1.083       .  S
C2682      C2683   1.406       .  A
C2683      C2684   1.402       .  A
C2683      H2687   1.083       .  S
C2684      H2688   1.082       .  S
C2689      C2690   1.404       .  A
C2689      C2694   1.401       .  A
C2689      H2699   1.083       .  S
C2690      C2695   1.480       .  S
C2690      C2691   1.402       .  A
C2691      C2692   1.394       .  A
C2691      H2696   1.083       .  S
C2692      C2693   1.408       .  A
C2692      H2697   1.082       .  S
C2693      C2694   1.405       .  A
C2694      H2698   1.078       .  S
C2695      C2700   1.404       .  A
C2695      C2704   1.403       .  A
C2700      C2701   1.401       .  A
C2700      H2705   1.083       .  S
C2701      C2702   1.407       .  A
C2701      H2706   1.083       .  S
C2702      C2703   1.406       .  A
C2703      C2704   1.394       .  A
C2703      H2707   1.083       .  S
C2704      H2708   1.083       .  S
C2709      C2710   1.406       .  A
C2709      C2714   1.401       .  A
C2709      H2719   1.083       .  S
C2710      C2715   1.494       .  S
C2710      C2711   1.406       .  A
C2711      C2712   1.398       .  A
C2711      H2716   1.082       .  S
C2712      C2713   1.408       .  A
C2712      H2717   1.083       .  S
C2713      C2714   1.412       .  A
C2714      H2718   1.077       .  S
C2715      C2720   1.408       .  A
C2715      C2724   1.407       .  A
C2720      C2721   1.401       .  A
C2720      H2725   1.082       .  S
C2721      C2722   1.406       .  A
C2721      H2726   1.083       .  S
C2722      C2723   1.406       .  A
C2723      C2724   1.399       .  A
C2723      H2727   1.083       .  S
C2724      H2728   1.082       .  S
C2729      C2730   1.405       .  A
C2729      C2734   1.394       .  A
C2729      H2739   1.083       .  S
C2730      C2735   1.486       .  S
C2730      C2731   1.409       .  A
C2731      C2732   1.403       .  A
C2731      H2736   1.083       .  S
C2732      C2733   1.402       .  A
C2732      H2737   1.082       .  S
C2733      C2734   1.402       .  A
C2734      H2738   1.083       .  S
C2735      C2740   1.409       .  A
C2735      C2744   1.405       .  A
C2740      C2741   1.401       .  A
C2740      H2745   1.083       .  S
C2741      C2742   1.400       .  A
C2741      H2746   1.083       .  S
C2742      C2743   1.401       .  A
C2743      C2744   1.396       .  A
C2743      H2747   1.084       .  S
C2744      H2748   1.083       .  S
C2749      C2750   1.407       .  A
C2749      C2754   1.396       .  A
C2749      H2759   1.082       .  S
C2750      C2755   1.495       .  S
C2750      C2751   1.410       .  A
C2751      C2752   1.404       .  A
C2751      H2756   1.082       .  S
C2752      C2753   1.404       .  A
C2752      H2757   1.083       .  S
C2753      C2754   1.403       .  A
C2754      H2758   1.083       .  S
C2755      C2760   1.408       .  A
C2755      C2764   1.408       .  A
C2760      C2761   1.397       .  A
C2760      H2765   1.082       .  S
C2761      C2762   1.404       .  A
C2761      H2766   1.083       .  S
C2762      C2763   1.404       .  A
C2763      C2764   1.403       .  A
C2763      H2767   1.082       .  S
C2764      H2768   1.082       .  S
C2769      C2770   1.405       .  A
C2769      C2774   1.398       .  A
C2769      H2779   1.083       .  S
C2770      C2775   1.481       .  S
C2770      C2771   1.405       .  A
C2771      C2772   1.393       .  A
C2771      H2776   1.083       .  S
C2772      C2773   1.403       .  A
C2772      H2777   1.083       .  S
C2773      C2774   1.405       .  A
C2774      H2778   1.083       .  S
C2775      C2780   1.405       .  A
C2775      C2784   1.405       .  A
C2780      C2781   1.398       .  A
C2780      H2785   1.083       .  S
C2781      C2782   1.405       .  A
C2781      H2786   1.083       .  S
C2782      C2783   1.403       .  A
C2783      C2784   1.393       .  A
C2783      H2787   1.083       .  S
C2784      H2788   1.083       .  S
C2789      C2790   1.405       .  A
C2789      C2794   1.391       .  A
C2789      H2799   1.083       .  S
C2790      C2795   1.483       .  S
C2790      C2791   1.407       .  A
C2791      C2792   1.403       .  A
C2791      H2796   1.083       .  S
C2792      C2793   1.406       .  A
C2792      H2797   1.083       .  S
C2793      C2794   1.402       .  A
C2794      H2798   1.083       .  S
C2795      C2800   1.404       .  A
C2795      C2804   1.407       .  A
C2800      C2801   1.389       .  A
C2800      H2805   1.083       .  S
C2801      C2802   1.403       .  A
C2801      H2806   1.083       .  S
C2802      C2803   1.407       .  A
C2803      C2804   1.404       .  A
C2803      H2807   1.083       .  S
C2804      H2808   1.083       .  S
C2809      C2810   1.405       .  A
C2809      C2814   1.390       .  A
C2809      H2819   1.082       .  S
C2810      C2815   1.488       .  S
C2810      C2811   1.410       .  A
C2811      C2812   1.404       .  A
C2811      H2816   1.082       .  S
C2812      C2813   1.405       .  A
C2812      H2817   1.083       .  S
C2813      C2814   1.402       .  A
C2814      H2818   1.083       .  S
C2815      C2820   1.407       .  A
C2815      C2824   1.406       .  A
C2820      C2821   1.393       .  A
C2820      H2825   1.083       .  S
C2821      C2822   1.403       .  A
C2821      H2826   1.083       .  S
C2822      C2823   1.406       .  A
C2823      C2824   1.400       .  A
C2823      H2827   1.083       .  S
C2824      H2828   1.082       .  S
C2829      C2830   1.402       .  A
C2829      C2834   1.394       .  A
C2829      H2839   1.083       .  S
C2830      C2835   1.480       .  S
C2830      C2831   1.403       .  A
C2831      C2832   1.398       .  A
C2831      H2836   1.083       .  S
C2832      C2833   1.410       .  A
C2832      H2837   1.083       .  S
C2833      C2834   1.410       .  A
C2834      H2838   1.077       .  S
C2835      C2840   1.403       .  A
C2835      C2844   1.405       .  A
C2840      C2841   1.393       .  A
C2840      H2845   1.083       .  S
C2841      C2842   1.405       .  A
C2841      H2846   1.083       .  S
C2842      C2843   1.406       .  A
C2843      C2844   1.399       .  A
C2843      H2847   1.083       .  S
C2844      H2848   1.083       .  S
C2849      C2850   1.407       .  A
C2849      C2854   1.397       .  A
C2849      H2859   1.083       .  S
C2850      C2855   1.492       .  S
C2850      C2851   1.408       .  A
C2851      C2852   1.402       .  A
C2851      H2856   1.082       .  S
C2852      C2853   1.405       .  A
C2852      H2857   1.083       .  S
C2853      C2854   1.404       .  A
C2854      H2858   1.083       .  S
C2855      C2860   1.407       .  A
C2855      C2864   1.407       .  A
C2860      C2861   1.397       .  A
C2860      H2865   1.082       .  S
C2861      C2862   1.405       .  A
C2861      H2866   1.083       .  S
C2862      C2863   1.407       .  A
C2863      C2864   1.401       .  A
C2863      H2867   1.083       .  S
C2864      H2868   1.083       .  S
C2869      C2870   1.406       .  A
C2869      C2874   1.392       .  A
C2869      H2879   1.083       .  S
C2870      C2875   1.481       .  S
C2870      C2871   1.406       .  A
C2871      C2872   1.396       .  A
C2871      H2876   1.083       .  S
C2872      C2873   1.403       .  A
C2872      H2877   1.083       .  S
C2873      C2874   1.401       .  A
C2874      H2878   1.083       .  S
C2875      C2880   1.404       .  A
C2875      C2884   1.405       .  A
C2880      C2881   1.391       .  A
C2880      H2885   1.083       .  S
C2881      C2882   1.405       .  A
C2881      H2886   1.082       .  S
C2882      C2883   1.405       .  A
C2883      C2884   1.397       .  A
C2883      H2887   1.082       .  S
C2884      H2888   1.083       .  S
C2889      C2890   1.410       .  A
C2889      C2894   1.404       .  A
C2889      H2899   1.082       .  S
C2890      C2895   1.495       .  S
C2890      C2891   1.408       .  A
C2891      C2892   1.395       .  A
C2891      H2896   1.082       .  S
C2892      C2893   1.402       .  A
C2892      H2897   1.083       .  S
C2893      C2894   1.403       .  A
C2894      H2898   1.083       .  S
C2895      C2900   1.409       .  A
C2895      C2904   1.408       .  A
C2900      C2901   1.403       .  A
C2900      H2905   1.082       .  S
C2901      C2902   1.406       .  A
C2901      H2906   1.083       .  S
C2902      C2903   1.404       .  A
C2903      C2904   1.396       .  A
C2903      H2907   1.083       .  S
C2904      H2908   1.082       .  S
C2909      C2910   1.403       .  A
C2909      C2914   1.396       .  A
C2909      H2919   1.083       .  S
C2910      C2915   1.488       .  S
C2910      C2911   1.406       .  A
C2911      C2912   1.400       .  A
C2911      H2916   1.083       .  S
C2912      C2913   1.410       .  A
C2912      H2917   1.077       .  S
C2913      C2914   1.409       .  A
C2914      H2918   1.083       .  S
C2915      C2920   1.407       .  A
C2915      C2924   1.406       .  A
C2920      C2921   1.400       .  A
C2920      H2925   1.083       .  S
C2921      C2922   1.405       .  A
C2921      H2926   1.083       .  S
C2922      C2923   1.405       .  A
C2923      C2924   1.397       .  A
C2923      H2927   1.083       .  S
C2924      H2928   1.083       .  S
C2929      C2930   1.411       .  A
C2929      C2934   1.398       .  A
C2929      H2939   1.082       .  S
C2930      C2935   1.497       .  S
C2930      C2931   1.408       .  A
C2931      C2932   1.398       .  A
C2931      H2936   1.082       .  S
C2932      C2933   1.406       .  A
C2932      H2937   1.083       .  S
C2933      C2934   1.402       .  A
C2934      H2938   1.083       .  S
C2935      C2940   1.408       .  A
C2935      C2944   1.411       .  A
C2940      C2941   1.395       .  A
C2940      H2945   1.082       .  S
C2941      C2942   1.403       .  A
C2941      H2946   1.083       .  S
C2942      C2943   1.404       .  A
C2943      C2944   1.402       .  A
C2943      H2947   1.083       .  S
C2944      H2948   1.082       .  S
C2949      C2950   1.407       .  A
C2949      C2954   1.398       .  A
C2949      H2959   1.083       .  S
C2950      C2955   1.480       .  S
C2950      C2951   1.404       .  A
C2951      C2952   1.390       .  A
C2951      H2956   1.083       .  S
C2952      C2953   1.404       .  A
C2952      H2957   1.083       .  S
C2953      C2954   1.404       .  A
C2954      H2958   1.083       .  S
C2955      C2960   1.405       .  A
C2955      C2964   1.407       .  A
C2960      C2961   1.395       .  A
C2960      H2965   1.083       .  S
C2961      C2962   1.403       .  A
C2961      H2966   1.083       .  S
C2962      C2963   1.401       .  A
C2963      C2964   1.393       .  A
C2963      H2967   1.083       .  S
C2964      H2968   1.083       .  S
C2969      C2970   1.408       .  A
C2969      C2974   1.401       .  A
C2969      H2979   1.082       .  S
C2970      C2975   1.492       .  S
C2970      C2971   1.408       .  A
C2971      C2972   1.395       .  A
C2971      H2976   1.082       .  S
C2972      C2973   1.404       .  A
C2972      H2977   1.083       .  S
C2973      C2974   1.405       .  A
C2974      H2978   1.083       .  S
C2975      C2980   1.410       .  A
C2975      C2984   1.406       .  A
C2980      C2981   1.403       .  A
C2980      H2985   1.082       .  S
C2981      C2982   1.405       .  A
C2981      H2986   1.083       .  S
C2982      C2983   1.404       .  A
C2983      C2984   1.393       .  A
C2983      H2987   1.083       .  S
C2984      H2988   1.082       .  S
C2989      C2990   1.404       .  A
C2989      C2994   1.394       .  A
C2989      H2999   1.083       .  S
C2990      C2995   1.486       .  S
C2990      C2991   1.409       .  A
C2991      C2992   1.402       .  A
C2991      H2996   1.083       .  S
C2992      C2993   1.403       .  A
C2992      H2997   1.082       .  S
C2993      C2994   1.404       .  A
C2994      H2998   1.083       .  S
C2995      C3000   1.407       .  A
C2995      C3004   1.406       .  A
C3000      C3001   1.396       .  A
C3000      H3005   1.083       .  S
C3001      C3002   1.402       .  A
C3001      H3006   1.083       .  S
C3002      C3003   1.405       .  A
C3003      C3004   1.400       .  A
C3003      H3007   1.083       .  S
C3004      H3008   1.083       .  S
C3009      C3010   1.403       .  A
C3009      C3014   1.391       .  A
C3009      H3019   1.083       .  S
C3010      C3015   1.486       .  S
C3010      C3011   1.406       .  A
C3011      C3012   1.401       .  A
C3011      H3016   1.083       .  S
C3012      C3013   1.410       .  A
C3012      H3017   1.078       .  S
C3013      C3014   1.407       .  A
C3014      H3018   1.083       .  S
C3015      C3020   1.406       .  A
C3015      C3024   1.406       .  A
C3020      C3021   1.395       .  A
C3020      H3025   1.083       .  S
C3021      C3022   1.404       .  A
C3021      H3026   1.083       .  S
C3022      C3023   1.406       .  A
C3023      C3024   1.399       .  A
C3023      H3027   1.083       .  S
C3024      H3028   1.083       .  S
C3029      C3030   1.397       .  A
C3029      C3034   1.391       .  A
C3029      H3039   1.084       .  S
C3030      C3035   1.468       .  S
C3030      C3031   1.403       .  A
C3031      C3032   1.403       .  A
C3031      H3036   1.083       .  S
C3032      C3033   1.405       .  A
C3032      H3037   1.082       .  S
C3033      C3034   1.408       .  A
C3034      H3038   1.082       .  S
C3035      C3040   1.401       .  A
C3035      C3044   1.401       .  A
C3040      C3041   1.399       .  A
C3040      H3045   1.083       .  S
C3041      C3042   1.405       .  A
C3041      H3046   1.083       .  S
C3042      C3043   1.404       .  A
C3043      C3044   1.396       .  A
C3043      H3047   1.083       .  S
C3044      H3048   1.083       .  S
C3049      C3050   1.402       .  A
C3049      C3054   1.395       .  A
C3049      H3059   1.083       .  S
C3050      C3055   1.477       .  S
C3050      C3051   1.403       .  A
C3051      C3052   1.402       .  A
C3051      H3056   1.083       .  S
C3052      C3053   1.407       .  A
C3052      H3057   1.082       .  S
C3053      C3054   1.406       .  A
C3054      H3058   1.082       .  S
C3055      C3060   1.404       .  A
C3055      C3064   1.400       .  A
C3060      C3061   1.405       .  A
C3060      H3065   1.083       .  S
C3061      C3062   1.408       .  A
C3061      H3066   1.083       .  S
C3062      C3063   1.407       .  A
C3063      C3064   1.393       .  A
C3063      H3067   1.083       .  S
C3064      H3068   1.084       .  S
C3069      C3070   1.402       .  A
C3069      C3074   1.397       .  A
C3069      H3079   1.083       .  S
C3070      C3075   1.477       .  S
C3070      C3071   1.402       .  A
C3071      C3072   1.393       .  A
C3071      H3076   1.083       .  S
C3072      C3073   1.408       .  A
C3072      H3077   1.083       .  S
C3073      C3074   1.412       .  A
C3074      H3078   1.076       .  S
C3075      C3080   1.405       .  A
C3075      C3084   1.403       .  A
C3080      C3081   1.397       .  A
C3080      H3085   1.083       .  S
C3081      C3082   1.405       .  A
C3081      H3086   1.083       .  S
C3082      C3083   1.405       .  A
C3083      C3084   1.394       .  A
C3083      H3087   1.083       .  S
C3084      H3088   1.083       .  S
C3089      C3090   1.405       .  A
C3089      C3094   1.395       .  A
C3089      H3099   1.083       .  S
C3090      C3095   1.488       .  S
C3090      C3091   1.408       .  A
C3091      C3092   1.403       .  A
C3091      H3096   1.083       .  S
C3092      C3093   1.406       .  A
C3092      H3097   1.083       .  S
C3093      C3094   1.404       .  A
C3094      H3098   1.083       .  S
C3095      C3100   1.406       .  A
C3095      C3104   1.407       .  A
C3100      C3101   1.395       .  A
C3100      H3105   1.083       .  S
C3101      C3102   1.405       .  A
C3101      H3106   1.083       .  S
C3102      C3103   1.406       .  A
C3103      C3104   1.403       .  A
C3103      H3107   1.083       .  S
C3104      H3108   1.083       .  S
C3109      C3110   1.407       .  A
C3109      C3114   1.400       .  A
C3109      H3119   1.083       .  S
C3110      C3115   1.492       .  S
C3110      C3111   1.408       .  A
C3111      C3112   1.399       .  A
C3111      H3116   1.082       .  S
C3112      C3113   1.405       .  A
C3112      H3117   1.083       .  S
C3113      C3114   1.406       .  A
C3114      H3118   1.083       .  S
C3115      C3120   1.408       .  A
C3115      C3124   1.407       .  A
C3120      C3121   1.400       .  A
C3120      H3125   1.082       .  S
C3121      C3122   1.404       .  A
C3121      H3126   1.083       .  S
C3122      C3123   1.406       .  A
C3123      C3124   1.399       .  A
C3123      H3127   1.083       .  S
C3124      H3128   1.083       .  S
C3129      C3130   1.407       .  A
C3129      C3134   1.398       .  A
C3129      H3139   1.082       .  S
C3130      C3135   1.495       .  S
C3130      C3131   1.409       .  A
C3131      C3132   1.403       .  A
C3131      H3136   1.082       .  S
C3132      C3133   1.405       .  A
C3132      H3137   1.083       .  S
C3133      C3134   1.405       .  A
C3134      H3138   1.083       .  S
C3135      C3140   1.408       .  A
C3135      C3144   1.407       .  A
C3140      C3141   1.399       .  A
C3140      H3145   1.082       .  S
C3141      C3142   1.405       .  A
C3141      H3146   1.083       .  S
C3142      C3143   1.407       .  A
C3143      C3144   1.402       .  A
C3143      H3147   1.083       .  S
C3144      H3148   1.083       .  S
C3149      C3150   1.409       .  A
C3149      C3154   1.400       .  A
C3149      H3159   1.082       .  S
C3150      C3155   1.498       .  S
C3150      C3151   1.410       .  A
C3151      C3152   1.400       .  A
C3151      H3156   1.082       .  S
C3152      C3153   1.405       .  A
C3152      H3157   1.083       .  S
C3153      C3154   1.405       .  A
C3154      H3158   1.083       .  S
C3155      C3160   1.410       .  A
C3155      C3164   1.409       .  A
C3160      C3161   1.401       .  A
C3160      H3165   1.082       .  S
C3161      C3162   1.405       .  A
C3161      H3166   1.083       .  S
C3162      C3163   1.405       .  A
C3163      C3164   1.399       .  A
C3163      H3167   1.083       .  S
C3164      H3168   1.082       .  S
C3169      C3170   1.407       .  A
C3169      C3174   1.398       .  A
C3169      H3179   1.082       .  S
C3170      C3175   1.488       .  S
C3170      C3171   1.407       .  A
C3171      C3172   1.395       .  A
C3171      H3176   1.082       .  S
C3172      C3173   1.403       .  A
C3172      H3177   1.083       .  S
C3173      C3174   1.406       .  A
C3174      H3178   1.083       .  S
C3175      C3180   1.407       .  A
C3175      C3184   1.407       .  A
C3180      C3181   1.398       .  A
C3180      H3185   1.082       .  S
C3181      C3182   1.404       .  A
C3181      H3186   1.083       .  S
C3182      C3183   1.404       .  A
C3183      C3184   1.395       .  A
C3183      H3187   1.083       .  S
C3184      H3188   1.082       .  S
C3189      C3190   1.405       .  A
C3189      C3194   1.395       .  A
C3189      H3199   1.083       .  S
C3190      C3195   1.486       .  S
C3190      C3191   1.408       .  A
C3191      C3192   1.401       .  A
C3191      H3196   1.083       .  S
C3192      C3193   1.404       .  A
C3192      H3197   1.083       .  S
C3193      C3194   1.404       .  A
C3194      H3198   1.083       .  S
C3195      C3200   1.406       .  A
C3195      C3204   1.406       .  A
C3200      C3201   1.396       .  A
C3200      H3205   1.083       .  S
C3201      C3202   1.404       .  A
C3201      H3206   1.083       .  S
C3202      C3203   1.407       .  A
C3203      C3204   1.400       .  A
C3203      H3207   1.083       .  S
C3204      H3208   1.083       .  S
C3209      C3210   1.408       .  A
C3209      C3214   1.403       .  A
C3209      H3219   1.083       .  S
C3210      C3215   1.493       .  S
C3210      C3211   1.406       .  A
C3211      C3212   1.399       .  A
C3211      H3216   1.083       .  S
C3212      C3213   1.406       .  A
C3212      H3217   1.083       .  S
C3213      C3214   1.406       .  A
C3214      H3218   1.083       .  S
C3215      C3220   1.406       .  A
C3215      C3224   1.408       .  A
C3220      C3221   1.401       .  A
C3220      H3225   1.083       .  S
C3221      C3222   1.407       .  A
C3221      H3226   1.083       .  S
C3222      C3223   1.406       .  A
C3223      C3224   1.401       .  A
C3223      H3227   1.083       .  S
C3224      H3228   1.083       .  S
C3229      C3230   1.407       .  A
C3229      C3234   1.396       .  A
C3229      H3239   1.083       .  S
C3230      C3235   1.483       .  S
C3230      C3231   1.405       .  A
C3231      C3232   1.396       .  A
C3231      H3236   1.083       .  S
C3232      C3233   1.404       .  A
C3232      H3237   1.083       .  S
C3233      C3234   1.402       .  A
C3234      H3238   1.083       .  S
C3235      C3240   1.407       .  A
C3235      C3244   1.405       .  A
C3240      C3241   1.398       .  A
C3240      H3245   1.083       .  S
C3241      C3242   1.404       .  A
C3241      H3246   1.083       .  S
C3242      C3243   1.405       .  A
C3243      C3244   1.395       .  A
C3243      H3247   1.083       .  S
C3244      H3248   1.083       .  S
C3249      C3250   1.406       .  A
C3249      C3254   1.395       .  A
C3249      H3259   1.083       .  S
C3250      C3255   1.489       .  S
C3250      C3251   1.408       .  A
C3251      C3252   1.401       .  A
C3251      H3256   1.083       .  S
C3252      C3253   1.404       .  A
C3252      H3257   1.083       .  S
C3253      C3254   1.405       .  A
C3254      H3258   1.083       .  S
C3255      C3260   1.407       .  A
C3255      C3264   1.407       .  A
C3260      C3261   1.400       .  A
C3260      H3265   1.083       .  S
C3261      C3262   1.405       .  A
C3261      H3266   1.083       .  S
C3262      C3263   1.404       .  A
C3263      C3264   1.396       .  A
C3263      H3267   1.083       .  S
C3264      H3268   1.083       .  S
C3269      C3270   1.409       .  A
C3269      C3274   1.404       .  A
C3269      H3279   1.082       .  S
C3270      C3275   1.500       .  S
C3270      C3271   1.408       .  A
C3271      C3272   1.402       .  A
C3271      H3276   1.082       .  S
C3272      C3273   1.407       .  A
C3272      H3277   1.083       .  S
C3273      C3274   1.407       .  A
C3274      H3278   1.083       .  S
C3275      C3280   1.409       .  A
C3275      C3284   1.409       .  A
C3280      C3281   1.403       .  A
C3280      H3285   1.082       .  S
C3281      C3282   1.406       .  A
C3281      H3286   1.083       .  S
C3282      C3283   1.405       .  A
C3283      C3284   1.403       .  A
C3283      H3287   1.083       .  S
C3284      H3288   1.082       .  S
C3289      C3290   1.408       .  A
C3289      C3294   1.399       .  A
C3289      H3299   1.082       .  S
C3290      C3295   1.496       .  S
C3290      C3291   1.409       .  A
C3291      C3292   1.399       .  A
C3291      H3296   1.082       .  S
C3292      C3293   1.404       .  A
C3292      H3297   1.083       .  S
C3293      C3294   1.405       .  A
C3294      H3298   1.083       .  S
C3295      C3300   1.409       .  A
C3295      C3304   1.408       .  A
C3300      C3301   1.400       .  A
C3300      H3305   1.082       .  S
C3301      C3302   1.405       .  A
C3301      H3306   1.083       .  S
C3302      C3303   1.405       .  A
C3303      C3304   1.399       .  A
C3303      H3307   1.083       .  S
C3304      H3308   1.082       .  S
C3309      C3310   1.408       .  A
C3309      C3314   1.395       .  A
C3309      H3319   1.082       .  S
C3310      C3315   1.485       .  S
C3310      C3311   1.405       .  A
C3311      C3312   1.396       .  A
C3311      H3316   1.083       .  S
C3312      C3313   1.406       .  A
C3312      H3317   1.083       .  S
C3313      C3314   1.402       .  A
C3314      H3318   1.083       .  S
C3315      C3320   1.408       .  A
C3315      C3324   1.405       .  A
C3320      C3321   1.399       .  A
C3320      H3325   1.082       .  S
C3321      C3322   1.403       .  A
C3321      H3326   1.083       .  S
C3322      C3323   1.403       .  A
C3323      C3324   1.392       .  A
C3323      H3327   1.083       .  S
C3324      H3328   1.083       .  S
C3329      C3330   1.406       .  A
C3329      C3334   1.394       .  A
C3329      H3339   1.082       .  S
C3330      C3335   1.493       .  S
C3330      C3331   1.410       .  A
C3331      C3332   1.403       .  A
C3331      H3336   1.082       .  S
C3332      C3333   1.405       .  A
C3332      H3337   1.083       .  S
C3333      C3334   1.404       .  A
C3334      H3338   1.083       .  S
C3335      C3340   1.407       .  A
C3335      C3344   1.410       .  A
C3340      C3341   1.399       .  A
C3340      H3345   1.082       .  S
C3341      C3342   1.405       .  A
C3341      H3346   1.083       .  S
C3342      C3343   1.402       .  A
C3343      C3344   1.398       .  A
C3343      H3347   1.083       .  S
C3344      H3348   1.082       .  S
C3349      C3350   1.411       .  A
C3349      C3354   1.404       .  A
C3349      H3359   1.082       .  S
C3350      C3355   1.499       .  S
C3350      C3351   1.408       .  A
C3351      C3352   1.396       .  A
C3351      H3356   1.082       .  S
C3352      C3353   1.404       .  A
C3352      H3357   1.083       .  S
C3353      C3354   1.406       .  A
C3354      H3358   1.083       .  S
C3355      C3360   1.409       .  A
C3355      C3364   1.409       .  A
C3360      C3361   1.403       .  A
C3360      H3365   1.082       .  S
C3361      C3362   1.406       .  A
C3361      H3366   1.083       .  S
C3362      C3363   1.404       .  A
C3363      C3364   1.398       .  A
C3363      H3367   1.083       .  S
C3364      H3368   1.082       .  S
C3369      C3370   1.408       .  A
C3369      C3374   1.400       .  A
C3369      H3379   1.083       .  S
C3370      C3375   1.490       .  S
C3370      C3371   1.406       .  A
C3371      C3372   1.396       .  A
C3371      H3376   1.082       .  S
C3372      C3373   1.404       .  A
C3372      H3377   1.083       .  S
C3373      C3374   1.405       .  A
C3374      H3378   1.083       .  S
C3375      C3380   1.408       .  A
C3375      C3384   1.406       .  A
C3380      C3381   1.400       .  A
C3380      H3385   1.082       .  S
C3381      C3382   1.405       .  A
C3381      H3386   1.083       .  S
C3382      C3383   1.405       .  A
C3383      C3384   1.397       .  A
C3383      H3387   1.083       .  S
C3384      H3388   1.083       .  S
C3389      C3390   1.407       .  A
C3389      C3394   1.397       .  A
C3389      H3399   1.082       .  S
C3390      C3395   1.488       .  S
C3390      C3391   1.407       .  A
C3391      C3392   1.397       .  A
C3391      H3396   1.082       .  S
C3392      C3393   1.405       .  A
C3392      H3397   1.083       .  S
C3393      C3394   1.403       .  A
C3394      H3398   1.083       .  S
C3395      C3400   1.407       .  A
C3395      C3404   1.407       .  A
C3400      C3401   1.396       .  A
C3400      H3405   1.082       .  S
C3401      C3402   1.404       .  A
C3401      H3406   1.083       .  S
C3402      C3403   1.405       .  A
C3403      C3404   1.398       .  A
C3403      H3407   1.083       .  S
C3404      H3408   1.082       .  S
C3409      C3410   1.404       .  A
C3409      C3414   1.394       .  A
C3409      H3419   1.083       .  S
C3410      C3415   1.484       .  S
C3410      C3411   1.406       .  A
C3411      C3412   1.403       .  A
C3411      H3416   1.083       .  S
C3412      C3413   1.408       .  A
C3412      H3417   1.083       .  S
C3413      C3414   1.405       .  A
C3414      H3418   1.083       .  S
C3415      C3420   1.402       .  A
C3415      C3424   1.406       .  A
C3420      C3421   1.392       .  A
C3420      H3425   1.083       .  S
C3421      C3422   1.406       .  A
C3421      H3426   1.082       .  S
C3422      C3423   1.407       .  A
C3423      C3424   1.405       .  A
C3423      H3427   1.079       .  S
C3424      H3428   1.083       .  S
C3429      C3430   1.406       .  A
C3429      C3434   1.394       .  A
C3429      H3439   1.083       .  S
C3430      C3435   1.483       .  S
C3430      C3431   1.407       .  A
C3431      C3432   1.398       .  A
C3431      H3436   1.083       .  S
C3432      C3433   1.403       .  A
C3432      H3437   1.083       .  S
C3433      C3434   1.402       .  A
C3434      H3438   1.083       .  S
C3435      C3440   1.406       .  A
C3435      C3444   1.405       .  A
C3440      C3441   1.395       .  A
C3440      H3445   1.083       .  S
C3441      C3442   1.403       .  A
C3441      H3446   1.083       .  S
C3442      C3443   1.406       .  A
C3443      C3444   1.397       .  A
C3443      H3447   1.083       .  S
C3444      H3448   1.083       .  S
C3449      C3450   1.407       .  A
C3449      C3454   1.395       .  A
C3449      H3459   1.082       .  S
C3450      C3455   1.490       .  S
C3450      C3451   1.408       .  A
C3451      C3452   1.398       .  A
C3451      H3456   1.082       .  S
C3452      C3453   1.405       .  A
C3452      H3457   1.083       .  S
C3453      C3454   1.403       .  A
C3454      H3458   1.083       .  S
C3455      C3460   1.407       .  A
C3455      C3464   1.409       .  A
C3460      C3461   1.394       .  A
C3460      H3465   1.082       .  S
C3461      C3462   1.403       .  A
C3461      H3466   1.083       .  S
C3462      C3463   1.404       .  A
C3463      C3464   1.399       .  A
C3463      H3467   1.083       .  S
C3464      H3468   1.082       .  S
C3469      C3470   1.410       .  A
C3469      C3474   1.406       .  A
C3469      H3479   1.083       .  S
C3470      C3475   1.491       .  S
C3470      C3471   1.406       .  A
C3471      C3472   1.393       .  A
C3471      H3476   1.083       .  S
C3472      C3473   1.401       .  A
C3472      H3477   1.083       .  S
C3473      C3474   1.404       .  A
C3474      H3478   1.082       .  S
C3475      C3480   1.408       .  A
C3475      C3484   1.406       .  A
C3480      C3481   1.406       .  A
C3480      H3485   1.083       .  S
C3481      C3482   1.408       .  A
C3481      H3486   1.083       .  S
C3482      C3483   1.403       .  A
C3483      C3484   1.394       .  A
C3483      H3487   1.083       .  S
C3484      H3488   1.083       .  S
C3489      C3490   1.406       .  A
C3489      C3494   1.403       .  A
C3489      H3499   1.083       .  S
C3490      C3495   1.478       .  S
C3490      C3491   1.402       .  A
C3491      C3492   1.391       .  A
C3491      H3496   1.083       .  S
C3492      C3493   1.404       .  A
C3492      H3497   1.083       .  S
C3493      C3494   1.404       .  A
C3494      H3498   1.082       .  S
C3495      C3500   1.404       .  A
C3495      C3504   1.403       .  A
C3500      C3501   1.400       .  A
C3500      H3505   1.083       .  S
C3501      C3502   1.407       .  A
C3501      H3506   1.083       .  S
C3502      C3503   1.405       .  A
C3503      C3504   1.394       .  A
C3503      H3507   1.083       .  S
C3504      H3508   1.083       .  S
C3509      C3510   1.405       .  A
C3509      C3514   1.401       .  A
C3509      H3519   1.083       .  S
C3510      C3515   1.481       .  S
C3510      C3511   1.405       .  A
C3511      C3512   1.400       .  A
C3511      H3516   1.083       .  S
C3512      C3513   1.402       .  A
C3512      H3517   1.083       .  S
C3513      C3514   1.403       .  A
C3514      H3518   1.083       .  S
C3515      C3520   1.403       .  A
C3515      C3524   1.405       .  A
C3520      C3521   1.397       .  A
C3520      H3525   1.083       .  S
C3521      C3522   1.406       .  A
C3521      H3526   1.083       .  S
C3522      C3523   1.406       .  A
C3523      C3524   1.403       .  A
C3523      H3527   1.083       .  S
C3524      H3528   1.083       .  S
C3529      C3530   1.401       .  A
C3529      C3534   1.396       .  A
C3529      H3539   1.083       .  S
C3530      C3535   1.478       .  S
C3530      C3531   1.403       .  A
C3531      C3532   1.396       .  A
C3531      H3536   1.083       .  S
C3532      C3533   1.408       .  A
C3532      H3537   1.083       .  S
C3533      C3534   1.412       .  A
C3534      H3538   1.078       .  S
C3535      C3540   1.403       .  A
C3535      C3544   1.404       .  A
C3540      C3541   1.396       .  A
C3540      H3545   1.083       .  S
C3541      C3542   1.407       .  A
C3541      H3546   1.083       .  S
C3542      C3543   1.405       .  A
C3543      C3544   1.397       .  A
C3543      H3547   1.083       .  S
C3544      H3548   1.083       .  S
C3549      C3550   1.408       .  A
C3549      C3554   1.401       .  A
C3549      H3559   1.082       .  S
C3550      C3555   1.493       .  S
C3550      C3551   1.405       .  A
C3551      C3552   1.395       .  A
C3551      H3556   1.082       .  S
C3552      C3553   1.408       .  A
C3552      H3557   1.081       .  S
C3553      C3554   1.405       .  A
C3554      H3558   1.081       .  S
C3555      C3560   1.409       .  A
C3555      C3564   1.408       .  A
C3560      C3561   1.400       .  A
C3560      H3565   1.082       .  S
C3561      C3562   1.403       .  A
C3561      H3566   1.083       .  S
C3562      C3563   1.404       .  A
C3563      C3564   1.397       .  A
C3563      H3567   1.083       .  S
C3564      H3568   1.082       .  S
C3569      C3570   1.403       .  A
C3569      C3574   1.393       .  A
C3569      H3579   1.083       .  S
C3570      C3575   1.486       .  S
C3570      C3571   1.405       .  A
C3571      C3572   1.398       .  A
C3571      H3576   1.082       .  S
C3572      C3573   1.409       .  A
C3572      H3577   1.083       .  S
C3573      C3574   1.410       .  A
C3574      H3578   1.075       .  S
C3575      C3580   1.407       .  A
C3575      C3584   1.406       .  A
C3580      C3581   1.395       .  A
C3580      H3585   1.083       .  S
C3581      C3582   1.403       .  A
C3581      H3586   1.083       .  S
C3582      C3583   1.406       .  A
C3583      C3584   1.398       .  A
C3583      H3587   1.083       .  S
C3584      H3588   1.082       .  S
C3589      C3590   1.406       .  A
C3589      C3594   1.400       .  A
C3589      H3599   1.083       .  S
C3590      C3595   1.482       .  S
C3590      C3591   1.402       .  A
C3591      C3592   1.394       .  A
C3591      H3596   1.083       .  S
C3592      C3593   1.408       .  A
C3592      H3597   1.082       .  S
C3593      C3594   1.405       .  A
C3594      H3598   1.082       .  S
C3595      C3600   1.404       .  A
C3595      C3604   1.406       .  A
C3600      C3601   1.398       .  A
C3600      H3605   1.083       .  S
C3601      C3602   1.405       .  A
C3601      H3606   1.083       .  S
C3602      C3603   1.404       .  A
C3603      C3604   1.397       .  A
C3603      H3607   1.083       .  S
C3604      H3608   1.083       .  S
C3609      C3610   1.404       .  A
C3609      C3614   1.401       .  A
C3609      H3619   1.083       .  S
C3610      C3615   1.483       .  S
C3610      C3611   1.405       .  A
C3611      C3612   1.397       .  A
C3611      H3616   1.083       .  S
C3612      C3613   1.404       .  A
C3612      H3617   1.083       .  S
C3613      C3614   1.406       .  A
C3614      H3618   1.083       .  S
C3615      C3620   1.406       .  A
C3615      C3624   1.403       .  A
C3620      C3621   1.404       .  A
C3620      H3625   1.083       .  S
C3621      C3622   1.406       .  A
C3621      H3626   1.082       .  S
C3622      C3623   1.406       .  A
C3623      C3624   1.394       .  A
C3623      H3627   1.082       .  S
C3624      H3628   1.083       .  S
C3629      C3630   1.406       .  A
C3629      C3634   1.394       .  A
C3629      H3639   1.082       .  S
C3630      C3635   1.495       .  S
C3630      C3631   1.409       .  A
C3631      C3632   1.405       .  A
C3631      H3636   1.082       .  S
C3632      C3633   1.408       .  A
C3632      H3637   1.081       .  S
C3633      C3634   1.407       .  A
C3634      H3638   1.081       .  S
C3635      C3640   1.408       .  A
C3635      C3644   1.410       .  A
C3640      C3641   1.396       .  A
C3640      H3645   1.082       .  S
C3641      C3642   1.402       .  A
C3641      H3646   1.083       .  S
C3642      C3643   1.405       .  A
C3643      C3644   1.404       .  A
C3643      H3647   1.083       .  S
C3644      H3648   1.082       .  S
C3649      C3650   1.405       .  A
C3649      C3654   1.401       .  A
C3649      H3659   1.083       .  S
C3650      C3655   1.489       .  S
C3650      C3651   1.403       .  A
C3651      C3652   1.398       .  A
C3651      H3656   1.083       .  S
C3652      C3653   1.412       .  A
C3652      H3657   1.077       .  S
C3653      C3654   1.410       .  A
C3654      H3658   1.083       .  S
C3655      C3660   1.406       .  A
C3655      C3664   1.406       .  A
C3660      C3661   1.402       .  A
C3660      H3665   1.083       .  S
C3661      C3662   1.408       .  A
C3661      H3666   1.083       .  S
C3662      C3663   1.405       .  A
C3663      C3664   1.398       .  A
C3663      H3667   1.083       .  S
C3664      H3668   1.083       .  S
C3669      C3670   1.404       .  A
C3669      C3674   1.398       .  A
C3669      H3679   1.083       .  S
C3670      C3675   1.487       .  S
C3670      C3671   1.404       .  A
C3671      C3672   1.397       .  A
C3671      H3676   1.083       .  S
C3672      C3673   1.411       .  A
C3672      H3677   1.076       .  S
C3673      C3674   1.410       .  A
C3674      H3678   1.083       .  S
C3675      C3680   1.406       .  A
C3675      C3684   1.406       .  A
C3680      C3681   1.399       .  A
C3680      H3685   1.083       .  S
C3681      C3682   1.405       .  A
C3681      H3686   1.083       .  S
C3682      C3683   1.406       .  A
C3683      C3684   1.397       .  A
C3683      H3687   1.083       .  S
C3684      H3688   1.083       .  S
C3689      C3690   1.408       .  A
C3689      C3694   1.406       .  A
C3689      H3699   1.083       .  S
C3690      C3695   1.486       .  S
C3690      C3691   1.402       .  A
C3691      C3692   1.394       .  A
C3691      H3696   1.083       .  S
C3692      C3693   1.408       .  A
C3692      H3697   1.083       .  S
C3693      C3694   1.406       .  A
C3694      H3698   1.081       .  S
C3695      C3700   1.404       .  A
C3695      C3704   1.406       .  A
C3700      C3701   1.403       .  A
C3700      H3705   1.083       .  S
C3701      C3702   1.408       .  A
C3701      H3706   1.083       .  S
C3702      C3703   1.404       .  A
C3703      C3704   1.398       .  A
C3703      H3707   1.083       .  S
C3704      H3708   1.083       .  S
C3709      C3710   1.405       .  A
C3709      C3714   1.395       .  A
C3709      H3719   1.083       .  S
C3710      C3715   1.486       .  S
C3710      C3711   1.406       .  A
C3711      C3712   1.400       .  A
C3711      H3716   1.083       .  S
C3712      C3713   1.407       .  A
C3712      H3717   1.082       .  S
C3713      C3714   1.406       .  A
C3714      H3718   1.082       .  S
C3715      C3720   1.403       .  A
C3715      C3724   1.405       .  A
C3720      C3721   1.393       .  A
C3720      H3725   1.083       .  S
C3721      C3722   1.407       .  A
C3721      H3726   1.083       .  S
C3722      C3723   1.412       .  A
C3723      C3724   1.401       .  A
C3723      H3727   1.077       .  S
C3724      H3728   1.083       .  S
C3729      C3730   1.406       .  A
C3729      C3734   1.400       .  A
C3729      H3739   1.083       .  S
C3730      C3735   1.479       .  S
C3730      C3731   1.404       .  A
C3731      C3732   1.396       .  A
C3731      H3736   1.083       .  S
C3732      C3733   1.402       .  A
C3732      H3737   1.084       .  S
C3733      C3734   1.401       .  A
C3734      H3738   1.083       .  S
C3735      C3740   1.404       .  A
C3735      C3744   1.406       .  A
C3740      C3741   1.395       .  A
C3740      H3745   1.083       .  S
C3741      C3742   1.402       .  A
C3741      H3746   1.083       .  S
C3742      C3743   1.403       .  A
C3743      C3744   1.400       .  A
C3743      H3747   1.083       .  S
C3744      H3748   1.083       .  S
C3749      C3750   1.398       .  A
C3749      C3754   1.396       .  A
C3749      H3759   1.084       .  S
C3750      C3755   1.468       .  S
C3750      C3751   1.399       .  A
C3751      C3752   1.398       .  A
C3751      H3756   1.083       .  S
C3752      C3753   1.411       .  A
C3752      H3757   1.083       .  S
C3753      C3754   1.412       .  A
C3754      H3758   1.077       .  S
C3755      C3760   1.401       .  A
C3755      C3764   1.400       .  A
C3760      C3761   1.398       .  A
C3760      H3765   1.083       .  S
C3761      C3762   1.407       .  A
C3761      H3766   1.083       .  S
C3762      C3763   1.406       .  A
C3763      C3764   1.396       .  A
C3763      H3767   1.083       .  S
C3764      H3768   1.083       .  S
C3769      C3770   1.401       .  A
C3769      C3774   1.395       .  A
C3769      H3779   1.083       .  S
C3770      C3775   1.474       .  S
C3770      C3771   1.402       .  A
C3771      C3772   1.398       .  A
C3771      H3776   1.083       .  S
C3772      C3773   1.407       .  A
C3772      H3777   1.081       .  S
C3773      C3774   1.408       .  A
C3774      H3778   1.082       .  S
C3775      C3780   1.402       .  A
C3775      C3784   1.403       .  A
C3780      C3781   1.398       .  A
C3780      H3785   1.083       .  S
C3781      C3782   1.407       .  A
C3781      H3786   1.083       .  S
C3782      C3783   1.405       .  A
C3783      C3784   1.396       .  A
C3783      H3787   1.083       .  S
C3784      H3788   1.083       .  S
C3789      C3790   1.406       .  A
C3789      C3794   1.400       .  A
C3789      H3799   1.083       .  S
C3790      C3795   1.484       .  S
C3790      C3791   1.403       .  A
C3791      C3792   1.397       .  A
C3791      H3796   1.083       .  S
C3792      C3793   1.407       .  A
C3792      H3797   1.082       .  S
C3793      C3794   1.405       .  A
C3794      H3798   1.082       .  S
C3795      C3800   1.402       .  A
C3795      C3804   1.405       .  A
C3800      C3801   1.396       .  A
C3800      H3805   1.083       .  S
C3801      C3802   1.410       .  A
C3801      H3806   1.082       .  S
C3802      C3803   1.406       .  A
C3803      C3804   1.401       .  A
C3803      H3807   1.081       .  S
C3804      H3808   1.083       .  S
C3809      C3810   1.405       .  A
C3809      C3814   1.395       .  A
C3809      H3819   1.083       .  S
C3810      C3815   1.486       .  S
C3810      C3811   1.407       .  A
C3811      C3812   1.403       .  A
C3811      H3816   1.083       .  S
C3812      C3813   1.405       .  A
C3812      H3817   1.083       .  S
C3813      C3814   1.404       .  A
C3814      H3818   1.083       .  S
C3815      C3820   1.407       .  A
C3815      C3824   1.407       .  A
C3820      C3821   1.398       .  A
C3820      H3825   1.083       .  S
C3821      C3822   1.400       .  A
C3821      H3826   1.083       .  S
C3822      C3823   1.402       .  A
C3823      C3824   1.400       .  A
C3823      H3827   1.084       .  S
C3824      H3828   1.083       .  S
C3829      C3830   1.403       .  A
C3829      C3834   1.397       .  A
C3829      H3839   1.083       .  S
C3830      C3835   1.484       .  S
C3830      C3831   1.404       .  A
C3831      C3832   1.397       .  A
C3831      H3836   1.083       .  S
C3832      C3833   1.409       .  A
C3832      H3837   1.078       .  S
C3833      C3834   1.410       .  A
C3834      H3838   1.083       .  S
C3835      C3840   1.407       .  A
C3835      C3844   1.403       .  A
C3840      C3841   1.401       .  A
C3840      H3845   1.083       .  S
C3841      C3842   1.406       .  A
C3841      H3846   1.083       .  S
C3842      C3843   1.405       .  A
C3843      C3844   1.393       .  A
C3843      H3847   1.083       .  S
C3844      H3848   1.083       .  S
C3849      C3850   1.404       .  A
C3849      C3854   1.396       .  A
C3849      H3859   1.083       .  S
C3850      C3855   1.483       .  S
C3850      C3851   1.405       .  A
C3851      C3852   1.400       .  A
C3851      H3856   1.083       .  S
C3852      C3853   1.405       .  A
C3852      H3857   1.083       .  S
C3853      C3854   1.405       .  A
C3854      H3858   1.083       .  S
C3855      C3860   1.406       .  A
C3855      C3864   1.404       .  A
C3860      C3861   1.401       .  A
C3860      H3865   1.083       .  S
C3861      C3862   1.406       .  A
C3861      H3866   1.083       .  S
C3862      C3863   1.404       .  A
C3863      C3864   1.395       .  A
C3863      H3867   1.083       .  S
C3864      H3868   1.083       .  S
C3869      C3870   1.410       .  A
C3869      C3874   1.402       .  A
C3869      H3879   1.082       .  S
C3870      C3875   1.501       .  S
C3870      C3871   1.411       .  A
C3871      C3872   1.399       .  A
C3871      H3876   1.082       .  S
C3872      C3873   1.400       .  A
C3872      H3877   1.083       .  S
C3873      C3874   1.403       .  A
C3874      H3878   1.083       .  S
C3875      C3880   1.411       .  A
C3875      C3884   1.407       .  A
C3880      C3881   1.406       .  A
C3880      H3885   1.082       .  S
C3881      C3882   1.407       .  A
C3881      H3886   1.080       .  S
C3882      C3883   1.408       .  A
C3883      C3884   1.395       .  A
C3883      H3887   1.081       .  S
C3884      H3888   1.082       .  S
C3889      C3890   1.405       .  A
C3889      C3894   1.396       .  A
C3889      H3899   1.083       .  S
C3890      C3895   1.487       .  S
C3890      C3891   1.410       .  A
C3891      C3892   1.398       .  A
C3891      H3896   1.082       .  S
C3892      C3893   1.398       .  A
C3892      H3897   1.083       .  S
C3893      C3894   1.404       .  A
C3894      H3898   1.083       .  S
C3895      C3900   1.410       .  A
C3895      C3904   1.404       .  A
C3900      C3901   1.400       .  A
C3900      H3905   1.083       .  S
C3901      C3902   1.402       .  A
C3901      H3906   1.083       .  S
C3902      C3903   1.403       .  A
C3903      C3904   1.394       .  A
C3903      H3907   1.083       .  S
C3904      H3908   1.083       .  S
C3909      C3910   1.404       .  A
C3909      C3914   1.394       .  A
C3909      H3919   1.082       .  S
C3910      C3915   1.495       .  S
C3910      C3911   1.410       .  A
C3911      C3912   1.402       .  A
C3911      H3916   1.082       .  S
C3912      C3913   1.407       .  A
C3912      H3917   1.078       .  S
C3913      C3914   1.409       .  A
C3914      H3918   1.084       .  S
C3915      C3920   1.412       .  A
C3915      C3924   1.406       .  A
C3920      C3921   1.402       .  A
C3920      H3925   1.082       .  S
C3921      C3922   1.404       .  A
C3921      H3926   1.083       .  S
C3922      C3923   1.406       .  A
C3923      C3924   1.395       .  A
C3923      H3927   1.083       .  S
C3924      H3928   1.082       .  S
C3929      C3930   1.404       .  A
C3929      C3934   1.392       .  A
C3929      H3939   1.083       .  S
C3930      C3935   1.483       .  S
C3930      C3931   1.407       .  A
C3931      C3932   1.403       .  A
C3931      H3936   1.083       .  S
C3932      C3933   1.406       .  A
C3932      H3937   1.083       .  S
C3933      C3934   1.404       .  A
C3934      H3938   1.083       .  S
C3935      C3940   1.405       .  A
C3935      C3944   1.406       .  A
C3940      C3941   1.393       .  A
C3940      H3945   1.083       .  S
C3941      C3942   1.403       .  A
C3941      H3946   1.083       .  S
C3942      C3943   1.404       .  A
C3943      C3944   1.401       .  A
C3943      H3947   1.083       .  S
C3944      H3948   1.083       .  S
C3949      C3950   1.406       .  A
C3949      C3954   1.403       .  A
C3949      H3959   1.083       .  S
C3950      C3955   1.487       .  S
C3950      C3951   1.404       .  A
C3951      C3952   1.395       .  A
C3951      H3956   1.083       .  S
C3952      C3953   1.407       .  A
C3952      H3957   1.082       .  S
C3953      C3954   1.407       .  A
C3954      H3958   1.082       .  S
C3955      C3960   1.407       .  A
C3955      C3964   1.405       .  A
C3960      C3961   1.404       .  A
C3960      H3965   1.083       .  S
C3961      C3962   1.404       .  A
C3961      H3966   1.083       .  S
C3962      C3963   1.404       .  A
C3963      C3964   1.396       .  A
C3963      H3967   1.083       .  S
C3964      H3968   1.083       .  S
C3969      C3970   1.405       .  A
C3969      C3974   1.404       .  A
C3969      H3979   1.083       .  S
C3970      C3975   1.474       .  S
C3970      C3971   1.400       .  A
C3971      C3972   1.391       .  A
C3971      H3976   1.084       .  S
C3972      C3973   1.404       .  A
C3972      H3977   1.083       .  S
C3973      C3974   1.404       .  A
C3974      H3978   1.083       .  S
C3975      C3980   1.401       .  A
C3975      C3984   1.403       .  A
C3980      C3981   1.400       .  A
C3980      H3985   1.083       .  S
C3981      C3982   1.408       .  A
C3981      H3986   1.083       .  S
C3982      C3983   1.402       .  A
C3983      C3984   1.395       .  A
C3983      H3987   1.081       .  S
C3984      H3988   1.083       .  S
C3989      C3990   1.405       .  A
C3989      C3994   1.398       .  A
C3989      H3999   1.083       .  S
C3990      C3995   1.485       .  S
C3990      C3991   1.403       .  A
C3991      C3992   1.396       .  A
C3991      H3996   1.083       .  S
C3992      C3993   1.410       .  A
C3992      H3997   1.083       .  S
C3993      C3994   1.409       .  A
C3994      H3998   1.077       .  S
C3995      C4000   1.406       .  A
C3995      C4004   1.406       .  A
C4000      C4001   1.396       .  A
C4000      H4005   1.083       .  S
C4001      C4002   1.404       .  A
C4001      H4006   1.083       .  S
C4002      C4003   1.406       .  A
C4003      C4004   1.398       .  A
C4003      H4007   1.083       .  S
C4004      H4008   1.083       .  S
C4009      C4010   1.408       .  A
C4009      C4014   1.402       .  A
C4009      H4019   1.082       .  S
C4010      C4015   1.490       .  S
C4010      C4011   1.405       .  A
C4011      C4012   1.392       .  A
C4011      H4016   1.082       .  S
C4012      C4013   1.406       .  A
C4012      H4017   1.081       .  S
C4013      C4014   1.407       .  A
C4014      H4018   1.082       .  S
C4015      C4020   1.408       .  A
C4015      C4024   1.408       .  A
C4020      C4021   1.395       .  A
C4020      H4025   1.082       .  S
C4021      C4022   1.402       .  A
C4021      H4026   1.083       .  S
C4022      C4023   1.404       .  A
C4023      C4024   1.401       .  A
C4023      H4027   1.083       .  S
C4024      H4028   1.082       .  S
C4029      C4030   1.406       .  A
C4029      C4034   1.402       .  A
C4029      H4039   1.083       .  S
C4030      C4035   1.486       .  S
C4030      C4031   1.405       .  A
C4031      C4032   1.397       .  A
C4031      H4036   1.083       .  S
C4032      C4033   1.404       .  A
C4032      H4037   1.083       .  S
C4033      C4034   1.404       .  A
C4034      H4038   1.083       .  S
C4035      C4040   1.408       .  A
C4035      C4044   1.406       .  A
C4040      C4041   1.402       .  A
C4040      H4045   1.083       .  S
C4041      C4042   1.401       .  A
C4041      H4046   1.083       .  S
C4042      C4043   1.401       .  A
C4043      C4044   1.398       .  A
C4043      H4047   1.084       .  S
C4044      H4048   1.083       .  S
C4049      C4050   1.405       .  A
C4049      C4054   1.397       .  A
C4049      H4059   1.083       .  S
C4050      C4055   1.482       .  S
C4050      C4051   1.406       .  A
C4051      C4052   1.401       .  A
C4051      H4056   1.083       .  S
C4052      C4053   1.403       .  A
C4052      H4057   1.083       .  S
C4053      C4054   1.401       .  A
C4054      H4058   1.083       .  S
C4055      C4060   1.407       .  A
C4055      C4064   1.404       .  A
C4060      C4061   1.402       .  A
C4060      H4065   1.083       .  S
C4061      C4062   1.401       .  A
C4061      H4066   1.083       .  S
C4062      C4063   1.403       .  A
C4063      C4064   1.397       .  A
C4063      H4067   1.084       .  S
C4064      H4068   1.083       .  S
C4069      C4070   1.404       .  A
C4069      C4074   1.398       .  A
C4069      H4079   1.083       .  S
C4070      C4075   1.486       .  S
C4070      C4071   1.404       .  A
C4071      C4072   1.397       .  A
C4071      H4076   1.083       .  S
C4072      C4073   1.410       .  A
C4072      H4077   1.083       .  S
C4073      C4074   1.410       .  A
C4074      H4078   1.078       .  S
C4075      C4080   1.406       .  A
C4075      C4084   1.405       .  A
C4080      C4081   1.398       .  A
C4080      H4085   1.083       .  S
C4081      C4082   1.405       .  A
C4081      H4086   1.083       .  S
C4082      C4083   1.406       .  A
C4083      C4084   1.398       .  A
C4083      H4087   1.083       .  S
C4084      H4088   1.083       .  S
C4089      C4090   1.405       .  A
C4089      C4094   1.400       .  A
C4089      H4099   1.083       .  S
C4090      C4095   1.481       .  S
C4090      C4091   1.403       .  A
C4091      C4092   1.395       .  A
C4091      H4096   1.083       .  S
C4092      C4093   1.405       .  A
C4092      H4097   1.083       .  S
C4093      C4094   1.405       .  A
C4094      H4098   1.083       .  S
C4095      C4100   1.404       .  A
C4095      C4104   1.404       .  A
C4100      C4101   1.396       .  A
C4100      H4105   1.083       .  S
C4101      C4102   1.406       .  A
C4101      H4106   1.082       .  S
C4102      C4103   1.406       .  A
C4103      C4104   1.398       .  A
C4103      H4107   1.082       .  S
C4104      H4108   1.083       .  S
C4109      C4110   1.406       .  A
C4109      C4114   1.398       .  A
C4109      H4119   1.083       .  S
C4110      C4115   1.488       .  S
C4110      C4111   1.408       .  A
C4111      C4112   1.395       .  A
C4111      H4116   1.082       .  S
C4112      C4113   1.402       .  A
C4112      H4117   1.083       .  S
C4113      C4114   1.405       .  A
C4114      H4118   1.083       .  S
C4115      C4120   1.408       .  A
C4115      C4124   1.409       .  A
C4120      C4121   1.397       .  A
C4120      H4125   1.083       .  S
C4121      C4122   1.401       .  A
C4121      H4126   1.083       .  S
C4122      C4123   1.398       .  A
C4123      C4124   1.397       .  A
C4123      H4127   1.084       .  S
C4124      H4128   1.082       .  S
C4129      C4130   1.404       .  A
C4129      C4134   1.398       .  A
C4129      H4139   1.083       .  S
C4130      C4135   1.477       .  S
C4130      C4131   1.404       .  A
C4131      C4132   1.394       .  A
C4131      H4136   1.083       .  S
C4132      C4133   1.403       .  A
C4132      H4137   1.083       .  S
C4133      C4134   1.404       .  A
C4134      H4138   1.083       .  S
C4135      C4140   1.404       .  A
C4135      C4144   1.404       .  A
C4140      C4141   1.398       .  A
C4140      H4145   1.083       .  S
C4141      C4142   1.403       .  A
C4141      H4146   1.083       .  S
C4142      C4143   1.401       .  A
C4143      C4144   1.395       .  A
C4143      H4147   1.080       .  S
C4144      H4148   1.083       .  S
C4149      C4150   1.407       .  A
C4149      C4154   1.400       .  A
C4149      H4159   1.082       .  S
C4150      C4155   1.497       .  S
C4150      C4151   1.407       .  A
C4151      C4152   1.399       .  A
C4151      H4156   1.082       .  S
C4152      C4153   1.409       .  A
C4152      H4157   1.083       .  S
C4153      C4154   1.410       .  A
C4154      H4158   1.077       .  S
C4155      C4160   1.409       .  A
C4155      C4164   1.409       .  A
C4160      C4161   1.398       .  A
C4160      H4165   1.082       .  S
C4161      C4162   1.404       .  A
C4161      H4166   1.083       .  S
C4162      C4163   1.406       .  A
C4163      C4164   1.402       .  A
C4163      H4167   1.083       .  S
C4164      H4168   1.082       .  S
C4169      C4170   1.407       .  A
C4169      C4174   1.397       .  A
C4169      H4179   1.083       .  S
C4170      C4175   1.485       .  S
C4170      C4171   1.404       .  A
C4171      C4172   1.399       .  A
C4171      H4176   1.083       .  S
C4172      C4173   1.406       .  A
C4172      H4177   1.082       .  S
C4173      C4174   1.404       .  A
C4174      H4178   1.083       .  S
C4175      C4180   1.404       .  A
C4175      C4184   1.409       .  A
C4180      C4181   1.392       .  A
C4180      H4185   1.083       .  S
C4181      C4182   1.404       .  A
C4181      H4186   1.083       .  S
C4182      C4183   1.405       .  A
C4183      C4184   1.403       .  A
C4183      H4187   1.083       .  S
C4184      H4188   1.083       .  S
C4189      C4190   1.404       .  A
C4189      C4194   1.396       .  A
C4189      H4199   1.083       .  S
C4190      C4195   1.476       .  S
C4190      C4191   1.403       .  A
C4191      C4192   1.400       .  A
C4191      H4196   1.083       .  S
C4192      C4193   1.405       .  A
C4192      H4197   1.083       .  S
C4193      C4194   1.403       .  A
C4194      H4198   1.083       .  S
C4195      C4200   1.403       .  A
C4195      C4204   1.404       .  A
C4200      C4201   1.397       .  A
C4200      H4205   1.083       .  S
C4201      C4202   1.402       .  A
C4201      H4206   1.082       .  S
C4202      C4203   1.403       .  A
C4203      C4204   1.399       .  A
C4203      H4207   1.083       .  S
C4204      H4208   1.083       .  S
C4209      C4210   1.405       .  A
C4209      C4214   1.397       .  A
C4209      H4219   1.083       .  S
C4210      C4215   1.479       .  S
C4210      C4211   1.402       .  A
C4211      C4212   1.398       .  A
C4211      H4216   1.083       .  S
C4212      C4213   1.407       .  A
C4212      H4217   1.083       .  S
C4213      C4214   1.404       .  A
C4214      H4218   1.083       .  S
C4215      C4220   1.401       .  A
C4215      C4224   1.404       .  A
C4220      C4221   1.395       .  A
C4220      H4225   1.083       .  S
C4221      C4222   1.408       .  A
C4221      H4226   1.082       .  S
C4222      C4223   1.408       .  A
C4223      C4224   1.400       .  A
C4223      H4227   1.080       .  S
C4224      H4228   1.083       .  S
C4229      C4230   1.406       .  A
C4229      C4234   1.398       .  A
C4229      H4239   1.083       .  S
C4230      C4235   1.488       .  S
C4230      C4231   1.404       .  A
C4231      C4232   1.395       .  A
C4231      H4236   1.082       .  S
C4232      C4233   1.409       .  A
C4232      H4237   1.083       .  S
C4233      C4234   1.409       .  A
C4234      H4238   1.077       .  S
C4235      C4240   1.405       .  A
C4235      C4244   1.408       .  A
C4240      C4241   1.395       .  A
C4240      H4245   1.083       .  S
C4241      C4242   1.406       .  A
C4241      H4246   1.083       .  S
C4242      C4243   1.405       .  A
C4243      C4244   1.399       .  A
C4243      H4247   1.083       .  S
C4244      H4248   1.082       .  S
C4249      C4250   1.407       .  A
C4249      C4254   1.402       .  A
C4249      H4259   1.083       .  S
C4250      C4255   1.485       .  S
C4250      C4251   1.406       .  A
C4251      C4252   1.393       .  A
C4251      H4256   1.083       .  S
C4252      C4253   1.402       .  A
C4252      H4257   1.083       .  S
C4253      C4254   1.405       .  A
C4254      H4258   1.083       .  S
C4255      C4260   1.408       .  A
C4255      C4264   1.407       .  A
C4260      C4261   1.400       .  A
C4260      H4265   1.083       .  S
C4261      C4262   1.401       .  A
C4261      H4266   1.083       .  S
C4262      C4263   1.399       .  A
C4263      C4264   1.395       .  A
C4263      H4267   1.084       .  S
C4264      H4268   1.083       .  S
C4269      C4270   1.409       .  A
C4269      C4274   1.404       .  A
C4269      H4279   1.082       .  S
C4270      C4275   1.494       .  S
C4270      C4271   1.405       .  A
C4271      C4272   1.393       .  A
C4271      H4276   1.082       .  S
C4272      C4273   1.408       .  A
C4272      H4277   1.080       .  S
C4273      C4274   1.407       .  A
C4274      H4278   1.081       .  S
C4275      C4280   1.410       .  A
C4275      C4284   1.408       .  A
C4280      C4281   1.404       .  A
C4280      H4285   1.082       .  S
C4281      C4282   1.405       .  A
C4281      H4286   1.083       .  S
C4282      C4283   1.401       .  A
C4283      C4284   1.393       .  A
C4283      H4287   1.083       .  S
C4284      H4288   1.082       .  S
C4289      C4290   1.406       .  A
C4289      C4294   1.398       .  A
C4289      H4299   1.082       .  S
C4290      C4295   1.493       .  S
C4290      C4291   1.411       .  A
C4291      C4292   1.400       .  A
C4291      H4296   1.082       .  S
C4292      C4293   1.401       .  A
C4292      H4297   1.083       .  S
C4293      C4294   1.405       .  A
C4294      H4298   1.083       .  S
C4295      C4300   1.412       .  A
C4295      C4304   1.406       .  A
C4300      C4301   1.401       .  A
C4300      H4305   1.082       .  S
C4301      C4302   1.400       .  A
C4301      H4306   1.083       .  S
C4302      C4303   1.404       .  A
C4303      C4304   1.396       .  A
C4303      H4307   1.083       .  S
C4304      H4308   1.082       .  S
C4309      C4310   1.405       .  A
C4309      C4314   1.396       .  A
C4309      H4319   1.083       .  S
C4310      C4315   1.488       .  S
C4310      C4311   1.404       .  A
C4311      C4312   1.398       .  A
C4311      H4316   1.083       .  S
C4312      C4313   1.410       .  A
C4312      H4317   1.083       .  S
C4313      C4314   1.410       .  A
C4314      H4318   1.076       .  S
C4315      C4320   1.405       .  A
C4315      C4324   1.408       .  A
C4320      C4321   1.393       .  A
C4320      H4325   1.083       .  S
C4321      C4322   1.405       .  A
C4321      H4326   1.083       .  S
C4322      C4323   1.405       .  A
C4323      C4324   1.402       .  A
C4323      H4327   1.083       .  S
C4324      H4328   1.082       .  S
C4329      C4330   1.408       .  A
C4329      C4334   1.395       .  A
C4329      H4339   1.082       .  S
C4330      C4335   1.493       .  S
C4330      C4331   1.409       .  A
C4331      C4332   1.401       .  A
C4331      H4336   1.082       .  S
C4332      C4333   1.403       .  A
C4332      H4337   1.083       .  S
C4333      C4334   1.403       .  A
C4334      H4338   1.083       .  S
C4335      C4340   1.408       .  A
C4335      C4344   1.410       .  A
C4340      C4341   1.394       .  A
C4340      H4345   1.082       .  S
C4341      C4342   1.398       .  A
C4341      H4346   1.079       .  S
C4342      C4343   1.403       .  A
C4343      C4344   1.401       .  A
C4343      H4347   1.083       .  S
C4344      H4348   1.082       .  S
C4349      C4350   1.401       .  A
C4349      C4354   1.391       .  A
C4349      H4359   1.083       .  S
C4350      C4355   1.472       .  S
C4350      C4351   1.405       .  A
C4351      C4352   1.400       .  A
C4351      H4356   1.083       .  S
C4352      C4353   1.403       .  A
C4352      H4357   1.083       .  S
C4353      C4354   1.404       .  A
C4354      H4358   1.083       .  S
C4355      C4360   1.402       .  A
C4355      C4364   1.402       .  A
C4360      C4361   1.393       .  A
C4360      H4365   1.083       .  S
C4361      C4362   1.405       .  A
C4361      H4366   1.083       .  S
C4362      C4363   1.406       .  A
C4363      C4364   1.399       .  A
C4363      H4367   1.083       .  S
C4364      H4368   1.083       .  S
C4369      C4370   1.410       .  A
C4369      C4374   1.401       .  A
C4369      H4379   1.082       .  S
C4370      C4375   1.492       .  S
C4370      C4371   1.407       .  A
C4371      C4372   1.396       .  A
C4371      H4376   1.082       .  S
C4372      C4373   1.403       .  A
C4372      H4377   1.083       .  S
C4373      C4374   1.401       .  A
C4374      H4378   1.083       .  S
C4375      C4380   1.408       .  A
C4375      C4384   1.409       .  A
C4380      C4381   1.400       .  A
C4380      H4385   1.082       .  S
C4381      C4382   1.404       .  A
C4381      H4386   1.083       .  S
C4382      C4383   1.402       .  A
C4383      C4384   1.397       .  A
C4383      H4387   1.083       .  S
C4384      H4388   1.082       .  S
C4389      C4390   1.405       .  A
C4389      C4394   1.394       .  A
C4389      H4399   1.083       .  S
C4390      C4395   1.476       .  S
C4390      C4391   1.403       .  A
C4391      C4392   1.393       .  A
C4391      H4396   1.083       .  S
C4392      C4393   1.404       .  A
C4392      H4397   1.083       .  S
C4393      C4394   1.404       .  A
C4394      H4398   1.083       .  S
C4395      C4400   1.400       .  A
C4395      C4404   1.403       .  A
C4400      C4401   1.392       .  A
C4400      H4405   1.083       .  S
C4401      C4402   1.412       .  A
C4401      H4406   1.075       .  S
C4402      C4403   1.407       .  A
C4403      C4404   1.393       .  A
C4403      H4407   1.083       .  S
C4404      H4408   1.083       .  S
C4409      C4410   1.406       .  A
C4409      C4414   1.399       .  A
C4409      H4419   1.083       .  S
C4410      C4415   1.485       .  S
C4410      C4411   1.406       .  A
C4411      C4412   1.400       .  A
C4411      H4416   1.083       .  S
C4412      C4413   1.401       .  A
C4412      H4417   1.083       .  S
C4413      C4414   1.400       .  A
C4414      H4418   1.083       .  S
C4415      C4420   1.405       .  A
C4415      C4424   1.404       .  A
C4420      C4421   1.403       .  A
C4420      H4425   1.083       .  S
C4421      C4422   1.407       .  A
C4421      H4426   1.082       .  S
C4422      C4423   1.406       .  A
C4423      C4424   1.397       .  A
C4423      H4427   1.083       .  S
C4424      H4428   1.083       .  S
C4429      C4430   1.405       .  A
C4429      C4434   1.401       .  A
C4429      H4439   1.083       .  S
C4430      C4435   1.483       .  S
C4430      C4431   1.404       .  A
C4431      C4432   1.395       .  A
C4431      H4436   1.083       .  S
C4432      C4433   1.406       .  A
C4432      H4437   1.082       .  S
C4433      C4434   1.406       .  A
C4434      H4438   1.082       .  S
C4435      C4440   1.407       .  A
C4435      C4444   1.403       .  A
C4440      C4441   1.404       .  A
C4440      H4445   1.083       .  S
C4441      C4442   1.407       .  A
C4441      H4446   1.083       .  S
C4442      C4443   1.405       .  A
C4443      C4444   1.392       .  A
C4443      H4447   1.083       .  S
C4444      H4448   1.083       .  S
C4449      C4450   1.404       .  A
C4449      C4454   1.396       .  A
C4449      H4459   1.083       .  S
C4450      C4455   1.485       .  S
C4450      C4451   1.405       .  A
C4451      C4452   1.397       .  A
C4451      H4456   1.083       .  S
C4452      C4453   1.410       .  A
C4452      H4457   1.077       .  S
C4453      C4454   1.409       .  A
C4454      H4458   1.083       .  S
C4455      C4460   1.407       .  A
C4455      C4464   1.405       .  A
C4460      C4461   1.399       .  A
C4460      H4465   1.083       .  S
C4461      C4462   1.405       .  A
C4461      H4466   1.083       .  S
C4462      C4463   1.405       .  A
C4463      C4464   1.394       .  A
C4463      H4467   1.083       .  S
C4464      H4468   1.083       .  S
C4469      C4470   1.411       .  A
C4469      C4474   1.399       .  A
C4469      H4479   1.082       .  S
C4470      C4475   1.498       .  S
C4470      C4471   1.410       .  A
C4471      C4472   1.401       .  A
C4471      H4476   1.082       .  S
C4472      C4473   1.400       .  A
C4472      H4477   1.083       .  S
C4473      C4474   1.400       .  A
C4474      H4478   1.083       .  S
C4475      C4480   1.407       .  A
C4475      C4484   1.412       .  A
C4480      C4481   1.393       .  A
C4480      H4485   1.082       .  S
C4481      C4482   1.403       .  A
C4481      H4486   1.083       .  S
C4482      C4483   1.403       .  A
C4483      C4484   1.406       .  A
C4483      H4487   1.083       .  S
C4484      H4488   1.082       .  S
C4489      C4490   1.404       .  A
C4489      C4494   1.399       .  A
C4489      H4499   1.083       .  S
C4490      C4495   1.489       .  S
C4490      C4491   1.404       .  A
C4491      C4492   1.398       .  A
C4491      H4496   1.083       .  S
C4492      C4493   1.409       .  A
C4492      H4497   1.083       .  S
C4493      C4494   1.412       .  A
C4494      H4498   1.076       .  S
C4495      C4500   1.407       .  A
C4495      C4504   1.405       .  A
C4500      C4501   1.401       .  A
C4500      H4505   1.083       .  S
C4501      C4502   1.405       .  A
C4501      H4506   1.083       .  S
C4502      C4503   1.407       .  A
C4503      C4504   1.398       .  A
C4503      H4507   1.083       .  S
C4504      H4508   1.083       .  S
C4509      C4510   1.405       .  A
C4509      C4514   1.401       .  A
C4509      H4519   1.083       .  S
C4510      C4515   1.484       .  S
C4510      C4511   1.405       .  A
C4511      C4512   1.391       .  A
C4511      H4516   1.083       .  S
C4512      C4513   1.404       .  A
C4512      H4517   1.082       .  S
C4513      C4514   1.406       .  A
C4514      H4518   1.079       .  S
C4515      C4520   1.408       .  A
C4515      C4524   1.406       .  A
C4520      C4521   1.401       .  A
C4520      H4525   1.083       .  S
C4521      C4522   1.401       .  A
C4521      H4526   1.083       .  S
C4522      C4523   1.400       .  A
C4523      C4524   1.392       .  A
C4523      H4527   1.084       .  S
C4524      H4528   1.083       .  S
C4529      C4530   1.405       .  A
C4529      C4534   1.398       .  A
C4529      H4539   1.083       .  S
C4530      C4535   1.481       .  S
C4530      C4531   1.404       .  A
C4531      C4532   1.397       .  A
C4531      H4536   1.083       .  S
C4532      C4533   1.407       .  A
C4532      H4537   1.083       .  S
C4533      C4534   1.405       .  A
C4534      H4538   1.083       .  S
C4535      C4540   1.400       .  A
C4535      C4544   1.401       .  A
C4540      C4541   1.397       .  A
C4540      H4545   1.083       .  S
C4541      C4542   1.411       .  A
C4541      H4546   1.075       .  S
C4542      C4543   1.413       .  A
C4543      C4544   1.398       .  A
C4543      H4547   1.079       .  S
C4544      H4548   1.083       .  S
C4549      C4550   1.408       .  A
C4549      C4554   1.399       .  A
C4549      H4559   1.083       .  S
C4550      C4555   1.484       .  S
C4550      C4551   1.403       .  A
C4551      C4552   1.397       .  A
C4551      H4556   1.083       .  S
C4552      C4553   1.407       .  A
C4552      H4557   1.083       .  S
C4553      C4554   1.401       .  A
C4554      H4558   1.083       .  S
C4555      C4560   1.402       .  A
C4555      C4564   1.407       .  A
C4560      C4561   1.393       .  A
C4560      H4565   1.083       .  S
C4561      C4562   1.407       .  A
C4561      H4566   1.083       .  S
C4562      C4563   1.404       .  A
C4563      C4564   1.404       .  A
C4563      H4567   1.080       .  S
C4564      H4568   1.083       .  S
C4569      C4570   1.404       .  A
C4569      C4574   1.401       .  A
C4569      H4579   1.083       .  S
C4570      C4575   1.485       .  S
C4570      C4571   1.406       .  A
C4571      C4572   1.399       .  A
C4571      H4576   1.083       .  S
C4572      C4573   1.406       .  A
C4572      H4577   1.083       .  S
C4573      C4574   1.407       .  A
C4574      H4578   1.083       .  S
C4575      C4580   1.402       .  A
C4575      C4584   1.407       .  A
C4580      C4581   1.395       .  A
C4580      H4585   1.083       .  S
C4581      C4582   1.410       .  A
C4581      H4586   1.082       .  S
C4582      C4583   1.405       .  A
C4583      C4584   1.403       .  A
C4583      H4587   1.079       .  S
C4584      H4588   1.083       .  S
C4589      C4590   1.404       .  A
C4589      C4594   1.396       .  A
C4589      H4599   1.083       .  S
C4590      C4595   1.490       .  S
C4590      C4591   1.409       .  A
C4591      C4592   1.405       .  A
C4591      H4596   1.083       .  S
C4592      C4593   1.403       .  A
C4592      H4597   1.083       .  S
C4593      C4594   1.407       .  A
C4594      H4598   1.083       .  S
C4595      C4600   1.406       .  A
C4595      C4604   1.406       .  A
C4600      C4601   1.400       .  A
C4600      H4605   1.083       .  S
C4601      C4602   1.407       .  A
C4601      H4606   1.083       .  S
C4602      C4603   1.407       .  A
C4603      C4604   1.402       .  A
C4603      H4607   1.083       .  S
C4604      H4608   1.083       .  S
C4609      C4610   1.405       .  A
C4609      C4614   1.400       .  A
C4609      H4619   1.083       .  S
C4610      C4615   1.477       .  S
C4610      C4611   1.404       .  A
C4611      C4612   1.395       .  A
C4611      H4616   1.083       .  S
C4612      C4613   1.402       .  A
C4612      H4617   1.083       .  S
C4613      C4614   1.403       .  A
C4614      H4618   1.083       .  S
C4615      C4620   1.405       .  A
C4615      C4624   1.405       .  A
C4620      C4621   1.396       .  A
C4620      H4625   1.083       .  S
C4621      C4622   1.401       .  A
C4621      H4626   1.083       .  S
C4622      C4623   1.401       .  A
C4623      C4624   1.399       .  A
C4623      H4627   1.083       .  S
C4624      H4628   1.083       .  S
C4629      C4630   1.402       .  A
C4629      C4634   1.395       .  A
C4629      H4639   1.083       .  S
C4630      C4635   1.481       .  S
C4630      C4631   1.404       .  A
C4631      C4632   1.396       .  A
C4631      H4636   1.083       .  S
C4632      C4633   1.408       .  A
C4632      H4637   1.077       .  S
C4633      C4634   1.410       .  A
C4634      H4638   1.083       .  S
C4635      C4640   1.406       .  A
C4635      C4644   1.404       .  A
C4640      C4641   1.399       .  A
C4640      H4645   1.083       .  S
C4641      C4642   1.405       .  A
C4641      H4646   1.083       .  S
C4642      C4643   1.404       .  A
C4643      C4644   1.393       .  A
C4643      H4647   1.083       .  S
C4644      H4648   1.083       .  S
C4649      C4650   1.405       .  A
C4649      C4654   1.396       .  A
C4649      H4659   1.083       .  S
C4650      C4655   1.477       .  S
C4650      C4651   1.402       .  A
C4651      C4652   1.397       .  A
C4651      H4656   1.083       .  S
C4652      C4653   1.407       .  A
C4652      H4657   1.083       .  S
C4653      C4654   1.402       .  A
C4654      H4658   1.083       .  S
C4655      C4660   1.401       .  A
C4655      C4664   1.405       .  A
C4660      C4661   1.393       .  A
C4660      H4665   1.083       .  S
C4661      C4662   1.405       .  A
C4661      H4666   1.083       .  S
C4662      C4663   1.406       .  A
C4663      C4664   1.400       .  A
C4663      H4667   1.082       .  S
C4664      H4668   1.083       .  S
C4669      C4670   1.401       .  A
C4669      C4674   1.392       .  A
C4669      H4679   1.084       .  S
C4670      C4675   1.471       .  S
C4670      C4671   1.402       .  A
C4671      C4672   1.399       .  A
C4671      H4676   1.083       .  S
C4672      C4673   1.407       .  A
C4672      H4677   1.083       .  S
C4673      C4674   1.405       .  A
C4674      H4678   1.083       .  S
C4675      C4680   1.402       .  A
C4675      C4684   1.401       .  A
C4680      C4681   1.398       .  A
C4680      H4685   1.083       .  S
C4681      C4682   1.407       .  A
C4681      H4686   1.082       .  S
C4682      C4683   1.405       .  A
C4683      C4684   1.393       .  A
C4683      H4687   1.082       .  S
C4684      H4688   1.083       .  S
C4689      C4690   1.404       .  A
C4689      C4694   1.397       .  A
C4689      H4699   1.083       .  S
C4690      C4695   1.479       .  S
C4690      C4691   1.405       .  A
C4691      C4692   1.400       .  A
C4691      H4696   1.083       .  S
C4692      C4693   1.402       .  A
C4692      H4697   1.082       .  S
C4693      C4694   1.402       .  A
C4694      H4698   1.083       .  S
C4695      C4700   1.406       .  A
C4695      C4704   1.403       .  A
C4700      C4701   1.402       .  A
C4700      H4705   1.083       .  S
C4701      C4702   1.402       .  A
C4701      H4706   1.083       .  S
C4702      C4703   1.403       .  A
C4703      C4704   1.395       .  A
C4703      H4707   1.083       .  S
C4704      H4708   1.083       .  S
C4709      C4710   1.406       .  A
C4709      C4714   1.393       .  A
C4709      H4719   1.082       .  S
C4710      C4715   1.497       .  S
C4710      C4711   1.410       .  A
C4711      C4712   1.405       .  A
C4711      H4716   1.082       .  S
C4712      C4713   1.406       .  A
C4712      H4717   1.081       .  S
C4713      C4714   1.407       .  A
C4714      H4718   1.081       .  S
C4715      C4720   1.410       .  A
C4715      C4724   1.410       .  A
C4720      C4721   1.396       .  A
C4720      H4725   1.082       .  S
C4721      C4722   1.400       .  A
C4721      H4726   1.083       .  S
C4722      C4723   1.402       .  A
C4723      C4724   1.402       .  A
C4723      H4727   1.083       .  S
C4724      H4728   1.082       .  S
C4729      C4730   1.407       .  A
C4729      C4734   1.399       .  A
C4729      H4739   1.082       .  S
C4730      C4735   1.492       .  S
C4730      C4731   1.408       .  A
C4731      C4732   1.398       .  A
C4731      H4736   1.082       .  S
C4732      C4733   1.405       .  A
C4732      H4737   1.082       .  S
C4733      C4734   1.405       .  A
C4734      H4738   1.081       .  S
C4735      C4740   1.409       .  A
C4735      C4744   1.407       .  A
C4740      C4741   1.401       .  A
C4740      H4745   1.082       .  S
C4741      C4742   1.404       .  A
C4741      H4746   1.083       .  S
C4742      C4743   1.404       .  A
C4743      C4744   1.397       .  A
C4743      H4747   1.083       .  S
C4744      H4748   1.082       .  S
C4749      C4750   1.405       .  A
C4749      C4754   1.399       .  A
C4749      H4759   1.083       .  S
C4750      C4755   1.488       .  S
C4750      C4751   1.403       .  A
C4751      C4752   1.398       .  A
C4751      H4756   1.083       .  S
C4752      C4753   1.411       .  A
C4752      H4757   1.076       .  S
C4753      C4754   1.410       .  A
C4754      H4758   1.083       .  S
C4755      C4760   1.406       .  A
C4755      C4764   1.407       .  A
C4760      C4761   1.399       .  A
C4760      H4765   1.083       .  S
C4761      C4762   1.406       .  A
C4761      H4766   1.083       .  S
C4762      C4763   1.405       .  A
C4763      C4764   1.398       .  A
C4763      H4767   1.083       .  S
C4764      H4768   1.083       .  S
C4769      C4770   1.409       .  A
C4769      C4774   1.396       .  A
C4769      H4779   1.082       .  S
C4770      C4775   1.487       .  S
C4770      C4771   1.409       .  A
C4771      C4772   1.394       .  A
C4771      H4776   1.082       .  S
C4772      C4773   1.398       .  A
C4772      H4777   1.084       .  S
C4773      C4774   1.398       .  A
C4774      H4778   1.084       .  S
C4775      C4780   1.407       .  A
C4775      C4784   1.405       .  A
C4780      C4781   1.398       .  A
C4780      H4785   1.082       .  S
C4781      C4782   1.408       .  A
C4781      H4786   1.079       .  S
C4782      C4783   1.406       .  A
C4783      C4784   1.389       .  A
C4783      H4787   1.083       .  S
C4784      H4788   1.082       .  S
C4789      C4790   1.407       .  A
C4789      C4794   1.394       .  A
C4789      H4799   1.083       .  S
C4790      C4795   1.478       .  S
C4790      C4791   1.403       .  A
C4791      C4792   1.396       .  A
C4791      H4796   1.083       .  S
C4792      C4793   1.406       .  A
C4792      H4797   1.083       .  S
C4793      C4794   1.400       .  A
C4794      H4798   1.083       .  S
C4795      C4800   1.403       .  A
C4795      C4804   1.408       .  A
C4800      C4801   1.392       .  A
C4800      H4805   1.083       .  S
C4801      C4802   1.401       .  A
C4801      H4806   1.083       .  S
C4802      C4803   1.400       .  A
C4803      C4804   1.399       .  A
C4803      H4807   1.083       .  S
C4804      H4808   1.083       .  S
C4809      C4810   1.407       .  A
C4809      C4814   1.401       .  A
C4809      H4819   1.083       .  S
C4810      C4815   1.485       .  S
C4810      C4811   1.405       .  A
C4811      C4812   1.392       .  A
C4811      H4816   1.083       .  S
C4812      C4813   1.403       .  A
C4812      H4817   1.083       .  S
C4813      C4814   1.405       .  A
C4814      H4818   1.083       .  S
C4815      C4820   1.405       .  A
C4815      C4824   1.406       .  A
C4820      C4821   1.400       .  A
C4820      H4825   1.083       .  S
C4821      C4822   1.406       .  A
C4821      H4826   1.082       .  S
C4822      C4823   1.403       .  A
C4823      C4824   1.394       .  A
C4823      H4827   1.083       .  S
C4824      H4828   1.083       .  S
C4829      C4830   1.406       .  A
C4829      C4834   1.394       .  A
C4829      H4839   1.082       .  S
C4830      C4835   1.486       .  S
C4830      C4831   1.404       .  A
C4831      C4832   1.395       .  A
C4831      H4836   1.083       .  S
C4832      C4833   1.411       .  A
C4832      H4837   1.076       .  S
C4833      C4834   1.406       .  A
C4834      H4838   1.083       .  S
C4835      C4840   1.405       .  A
C4835      C4844   1.409       .  A
C4840      C4841   1.394       .  A
C4840      H4845   1.082       .  S
C4841      C4842   1.405       .  A
C4841      H4846   1.083       .  S
C4842      C4843   1.403       .  A
C4843      C4844   1.397       .  A
C4843      H4847   1.083       .  S
C4844      H4848   1.082       .  S
C4849      C4850   1.407       .  A
C4849      C4854   1.398       .  A
C4849      H4859   1.083       .  S
C4850      C4855   1.484       .  S
C4850      C4851   1.406       .  A
C4851      C4852   1.397       .  A
C4851      H4856   1.083       .  S
C4852      C4853   1.401       .  A
C4852      H4857   1.082       .  S
C4853      C4854   1.400       .  A
C4854      H4858   1.083       .  S
C4855      C4860   1.406       .  A
C4855      C4864   1.406       .  A
C4860      C4861   1.399       .  A
C4860      H4865   1.083       .  S
C4861      C4862   1.402       .  A
C4861      H4866   1.081       .  S
C4862      C4863   1.402       .  A
C4863      C4864   1.396       .  A
C4863      H4867   1.083       .  S
C4864      H4868   1.083       .  S
C4869      C4870   1.403       .  A
C4869      C4874   1.392       .  A
C4869      H4879   1.082       .  S
C4870      C4875   1.489       .  S
C4870      C4871   1.408       .  A
C4871      C4872   1.402       .  A
C4871      H4876   1.082       .  S
C4872      C4873   1.408       .  A
C4872      H4877   1.078       .  S
C4873      C4874   1.408       .  A
C4874      H4878   1.084       .  S
C4875      C4880   1.409       .  A
C4875      C4884   1.405       .  A
C4880      C4881   1.399       .  A
C4880      H4885   1.083       .  S
C4881      C4882   1.404       .  A
C4881      H4886   1.083       .  S
C4882      C4883   1.407       .  A
C4883      C4884   1.398       .  A
C4883      H4887   1.083       .  S
C4884      H4888   1.082       .  S
C4889      C4890   1.410       .  A
C4889      C4894   1.399       .  A
C4889      H4899   1.082       .  S
C4890      C4895   1.492       .  S
C4890      C4891   1.409       .  A
C4891      C4892   1.398       .  A
C4891      H4896   1.082       .  S
C4892      C4893   1.400       .  A
C4892      H4897   1.084       .  S
C4893      C4894   1.400       .  A
C4894      H4898   1.083       .  S
C4895      C4900   1.406       .  A
C4895      C4904   1.409       .  A
C4900      C4901   1.394       .  A
C4900      H4905   1.082       .  S
C4901      C4902   1.407       .  A
C4901      H4906   1.082       .  S
C4902      C4903   1.404       .  A
C4903      C4904   1.400       .  A
C4903      H4907   1.082       .  S
C4904      H4908   1.082       .  S
C4909      C4910   1.406       .  A
C4909      C4914   1.394       .  A
C4909      H4919   1.082       .  S
C4910      C4915   1.487       .  S
C4910      C4911   1.408       .  A
C4911      C4912   1.398       .  A
C4911      H4916   1.082       .  S
C4912      C4913   1.402       .  A
C4912      H4917   1.081       .  S
C4913      C4914   1.403       .  A
C4914      H4918   1.083       .  S
C4915      C4920   1.408       .  A
C4915      C4924   1.406       .  A
C4920      C4921   1.397       .  A
C4920      H4925   1.082       .  S
C4921      C4922   1.403       .  A
C4921      H4926   1.083       .  S
C4922      C4923   1.404       .  A
C4923      C4924   1.396       .  A
C4923      H4927   1.083       .  S
C4924      H4928   1.082       .  S
C4929      C4930   1.401       .  A
C4929      C4934   1.399       .  A
C4929      H4939   1.083       .  S
C4930      C4935   1.475       .  S
C4930      C4931   1.404       .  A
C4931      C4932   1.396       .  A
C4931      H4936   1.083       .  S
C4932      C4933   1.401       .  A
C4932      H4937   1.080       .  S
C4933      C4934   1.408       .  A
C4934      H4938   1.083       .  S
C4935      C4940   1.404       .  A
C4935      C4944   1.401       .  A
C4940      C4941   1.402       .  A
C4940      H4945   1.083       .  S
C4941      C4942   1.406       .  A
C4941      H4946   1.083       .  S
C4942      C4943   1.405       .  A
C4943      C4944   1.393       .  A
C4943      H4947   1.083       .  S
C4944      H4948   1.083       .  S
C4949      C4950   1.410       .  A
C4949      C4954   1.399       .  A
C4949      H4959   1.082       .  S
C4950      C4955   1.490       .  S
C4950      C4951   1.407       .  A
C4951      C4952   1.393       .  A
C4951      H4956   1.082       .  S
C4952      C4953   1.402       .  A
C4952      H4957   1.083       .  S
C4953      C4954   1.400       .  A
C4954      H4958   1.083       .  S
C4955      C4960   1.405       .  A
C4955      C4964   1.406       .  A
C4960      C4961   1.396       .  A
C4960      H4965   1.082       .  S
C4961      C4962   1.409       .  A
C4961      H4966   1.079       .  S
C4962      C4963   1.408       .  A
C4963      C4964   1.397       .  A
C4963      H4967   1.083       .  S
C4964      H4968   1.082       .  S
C4969      C4970   1.406       .  A
C4969      C4974   1.394       .  A
C4969      H4979   1.083       .  S
C4970      C4975   1.486       .  S
C4970      C4971   1.408       .  A
C4971      C4972   1.402       .  A
C4971      H4976   1.083       .  S
C4972      C4973   1.402       .  A
C4972      H4977   1.083       .  S
C4973      C4974   1.401       .  A
C4974      H4978   1.083       .  S
C4975      C4980   1.404       .  A
C4975      C4984   1.407       .  A
C4980      C4981   1.395       .  A
C4980      H4985   1.083       .  S
C4981      C4982   1.406       .  A
C4981      H4986   1.083       .  S
C4982      C4983   1.406       .  A
C4983      C4984   1.401       .  A
C4983      H4987   1.083       .  S
C4984      H4988   1.083       .  S
C4989      C4990   1.402       .  A
C4989      C4994   1.394       .  A
C4989      H4999   1.083       .  S
C4990      C4995   1.482       .  S
C4990      C4991   1.404       .  A
C4991      C4992   1.402       .  A
C4991      H4996   1.083       .  S
C4992      C4993   1.409       .  A
C4992      H4997   1.079       .  S
C4993      C4994   1.409       .  A
C4994      H4998   1.081       .  S
C4995      C5000   1.403       .  A
C4995      C5004   1.405       .  A
C5000      C5001   1.393       .  A
C5000      H5005   1.083       .  S
C5001      C5002   1.404       .  A
C5001      H5006   1.083       .  S
C5002      C5003   1.408       .  A
C5003      C5004   1.403       .  A
C5003      H5007   1.083       .  S
C5004      H5008   1.083       .  S
C5009      C5010   1.403       .  A
C5009      C5014   1.395       .  A
C5009      H5019   1.083       .  S
C5010      C5015   1.486       .  S
C5010      C5011   1.410       .  A
C5011      C5012   1.399       .  A
C5011      H5016   1.082       .  S
C5012      C5013   1.400       .  A
C5012      H5017   1.083       .  S
C5013      C5014   1.407       .  A
C5014      H5018   1.083       .  S
C5015      C5020   1.411       .  A
C5015      C5024   1.404       .  A
C5020      C5021   1.400       .  A
C5020      H5025   1.083       .  S
C5021      C5022   1.399       .  A
C5021      H5026   1.083       .  S
C5022      C5023   1.402       .  A
C5023      C5024   1.393       .  A
C5023      H5027   1.084       .  S
C5024      H5028   1.083       .  S
C5029      C5030   1.406       .  A
C5029      C5034   1.401       .  A
C5029      H5039   1.082       .  S
C5030      C5035   1.493       .  S
C5030      C5031   1.409       .  A
C5031      C5032   1.398       .  A
C5031      H5036   1.083       .  S
C5032      C5033   1.405       .  A
C5032      H5037   1.083       .  S
C5033      C5034   1.407       .  A
C5034      H5038   1.083       .  S
C5035      C5040   1.411       .  A
C5035      C5044   1.406       .  A
C5040      C5041   1.405       .  A
C5040      H5045   1.082       .  S
C5041      C5042   1.402       .  A
C5041      H5046   1.082       .  S
C5042      C5043   1.403       .  A
C5043      C5044   1.394       .  A
C5043      H5047   1.083       .  S
C5044      H5048   1.083       .  S
C5049      C5050   1.408       .  A
C5049      C5054   1.404       .  A
C5049      H5059   1.083       .  S
C5050      C5055   1.487       .  S
C5050      C5051   1.403       .  A
C5051      C5052   1.395       .  A
C5051      H5056   1.083       .  S
C5052      C5053   1.406       .  A
C5052      H5057   1.083       .  S
C5053      C5054   1.404       .  A
C5054      H5058   1.082       .  S
C5055      C5060   1.404       .  A
C5055      C5064   1.407       .  A
C5060      C5061   1.399       .  A
C5060      H5065   1.083       .  S
C5061      C5062   1.408       .  A
C5061      H5066   1.082       .  S
C5062      C5063   1.405       .  A
C5063      C5064   1.400       .  A
C5063      H5067   1.082       .  S
C5064      H5068   1.083       .  S
C5069      C5070   1.402       .  A
C5069      C5074   1.394       .  A
C5069      H5079   1.083       .  S
C5070      C5075   1.480       .  S
C5070      C5071   1.403       .  A
C5071      C5072   1.393       .  A
C5071      H5076   1.083       .  S
C5072      C5073   1.409       .  A
C5072      H5077   1.076       .  S
C5073      C5074   1.408       .  A
C5074      H5078   1.083       .  S
C5075      C5080   1.407       .  A
C5075      C5084   1.403       .  A
C5080      C5081   1.398       .  A
C5080      H5085   1.083       .  S
C5081      C5082   1.405       .  A
C5081      H5086   1.083       .  S
C5082      C5083   1.404       .  A
C5083      C5084   1.389       .  A
C5083      H5087   1.083       .  S
C5084      H5088   1.083       .  S
