geometry optimzed in LAMMPS
_audit_creation_date              2020-12-01 
_audit_creation_method            'lammps2cif' 
_symmetry_space_group_name_H-M    'P1' 
_symmetry_Int_Tables_number       1 
_symmetry_cell_setting            triclinic 
loop_ 
_symmetry_equiv_pos_as_xyz 
  x,y,z 
_cell_length_a                    49.95279958 
_cell_length_b                    50.089611330893156 
_cell_length_c                    50.0805402175475 
_cell_angle_alpha                 89.99148919913036 
_cell_angle_beta                  90.0568951343505 
_cell_angle_gamma                 89.97101167822998 
loop_ 
_atom_site_label 
_atom_site_type_symbol 
_atom_site_fract_x 
_atom_site_fract_y 
_atom_site_fract_z 
_atom_site_charge 
Fe1        Fe  0.76628229  0.81889161  0.60045092     1.65800
Fe2        Fe  0.72599586  0.84708608  0.55340301     1.73200
Fe3        Fe  0.77111124  0.79865465  0.53539089     1.54400
O4          O  0.81000147  0.80672566  0.54786564    -0.81100
O5          O  0.70737958  0.82140698  0.52731505    -0.79400
O6          O  0.80624355  0.81643513  0.59108165    -0.83600
O7          O  0.76256996  0.77828675  0.60042330    -0.78500
O8          O  0.77365275  0.82966339  0.50803596    -0.80200
O9          O  0.70035433  0.83340255  0.58281703    -0.83000
C10         C  0.76507251  0.75993819  0.58323935     0.97800
C11         C  0.82026833  0.81170297  0.57055299     1.05200
O12         O  0.75462166  0.82164720  0.56297595    -1.12000
O13         O  0.74022845  0.87663677  0.57837228    -0.74400
O14         O  0.77097091  0.85934162  0.60529935    -0.77900
O15         O  0.76970706  0.76452649  0.55874989    -0.78600
C16         C  0.75730580  0.87892753  0.59703977     0.96700
O17         O  0.72792780  0.82050503  0.61515313    -0.76500
O18         O  0.74803758  0.86322074  0.52255987    -0.81700
C19         C  0.71247742  0.79904767  0.51665681     0.99300
C20         C  0.76400117  0.85307709  0.50566877     1.05200
O21         O  0.73471749  0.78726013  0.51959413    -0.77400
C22         C  0.70462242  0.82526362  0.60643288     1.03500
Fe23       Fe  0.80334702  0.89850744  0.26982881     1.65800
Fe24       Fe  0.78063247  0.96264782  0.27429314     1.73200
Fe25       Fe  0.83107947  0.94643719  0.23084027     1.54400
O26         O  0.86055320  0.92026365  0.24332084    -0.81100
O27         O  0.77023416  0.97920512  0.23803558    -0.79400
O28         O  0.84383034  0.89502622  0.27563261    -0.83600
O29         O  0.80656614  0.88443871  0.23137598    -0.78500
O30         O  0.84688324  0.97565859  0.25549188    -0.80200
O31         O  0.74704423  0.93854446  0.27066276    -0.83000
C32         C  0.81004074  0.89398427  0.20815011     0.97800
C33         C  0.86302517  0.90222067  0.26085140     1.05200
O34         O  0.80501248  0.93593633  0.25843231    -1.12000
O35         O  0.78711223  0.94986522  0.31320926    -0.74400
O36         O  0.79981628  0.90747849  0.30958612    -0.77900
O37         O  0.81692468  0.91808188  0.20414703    -0.78600
C38         C  0.79376658  0.92766239  0.32348721     0.96700
O39         O  0.76273101  0.89735234  0.26526412    -0.76500
O40         O  0.81168300  0.98973207  0.27898532    -0.81700
C41         C  0.78350047  0.98398630  0.21705851     0.99300
C42         C  0.83600534  0.99193561  0.27179107     1.05200
O43         O  0.80633325  0.97396423  0.21290844    -0.77400
C44         C  0.74353277  0.91377753  0.26639210     1.03500
Fe45       Fe  0.10074701  0.78100710  0.67242373     1.65800
Fe46       Fe  0.03740757  0.79158412  0.69507164     1.73200
Fe47       Fe  0.04993909  0.74195291  0.64950682     1.54400
O48         O  0.06986874  0.75543753  0.61581202    -0.81100
O49         O  0.01545735  0.75799809  0.70612288    -0.79400
O50         O  0.10603587  0.77521711  0.63232308    -0.83600
O51         O  0.11220478  0.74231325  0.68039463    -0.78500
O52         O  0.01629093  0.76288401  0.63716964    -0.80200
O53         O  0.06045194  0.78648243  0.72904538    -0.83000
C54         C  0.10352239  0.71983518  0.67256760     0.97800
C55         C  0.09266910  0.76621575  0.61291380     1.05200
O56         O  0.06259308  0.77148577  0.67226644    -1.12000
O57         O  0.05587233  0.82818338  0.68769241    -0.74400
O58         O  0.09294065  0.82055413  0.66458162    -0.77900
O59         O  0.08175489  0.71702888  0.65968228    -0.78600
C60         C  0.07627895  0.83655214  0.67506759     0.96700
O61         O  0.10179921  0.78817275  0.71266639    -0.76500
O62         O  0.01152719  0.79860398  0.66362646    -0.81700
C63         C  0.01491736  0.73351850  0.69940270     0.99300
C64         C  0.00428235  0.78419132  0.64403999     1.05200
O65         O  0.02850024  0.72455523  0.68002877    -0.77400
C66         C  0.08560793  0.78808431  0.73207635     1.03500
Fe67       Fe  0.21502668  0.19549312  0.39239599     1.65800
Fe68       Fe  0.20313484  0.21587152  0.45642290     1.73200
Fe69       Fe  0.25579582  0.17389370  0.44260325     1.54400
O70         O  0.24781362  0.14094829  0.41892910    -0.81100
O71         O  0.23580617  0.23082115  0.47702655    -0.79400
O72         O  0.22380278  0.15601211  0.38500032    -0.83600
O73         O  0.25341596  0.20591577  0.38165937    -0.78500
O74         O  0.23400142  0.15605645  0.47308120    -0.80200
O75         O  0.20330539  0.25062600  0.43404358    -0.83000
C76         C  0.27661587  0.20166382  0.39118324     0.97800
C77         C  0.23735559  0.13775266  0.39611188     1.05200
O78         O  0.22464941  0.19500123  0.43050338    -1.12000
O79         O  0.16727171  0.20459076  0.43914124    -0.74400
O80         O  0.17545060  0.18548628  0.39975146    -0.77900
O81         O  0.28047454  0.18960915  0.41323769    -0.78600
C82         C  0.15938700  0.19333199  0.41783652     0.96700
O83         O  0.20529596  0.23518571  0.39265967    -0.76500
O84         O  0.20006442  0.18358814  0.48185906    -0.81700
C85         C  0.26017734  0.22410123  0.47899412     0.99300
C86         C  0.21296070  0.16215704  0.48608674     1.05200
O87         O  0.26958233  0.20362198  0.46754574    -0.77400
C88         C  0.20199426  0.25415224  0.40904021     1.03500
Fe89       Fe  0.17635614  0.11290368  0.72124906     1.65800
Fe90       Fe  0.15336822  0.06321918  0.76115322     1.73200
Fe91       Fe  0.20037052  0.05013573  0.71313122     1.54400
O92         O  0.19357472  0.06804102  0.67581388    -0.81100
O93         O  0.18333030  0.04209747  0.77960554    -0.79400
O94         O  0.16753111  0.10356487  0.68233366    -0.83600
O95         O  0.21673850  0.11394251  0.71266659    -0.78500
O96         O  0.16918021  0.02393880  0.70578631    -0.80200
O97         O  0.16390184  0.09546317  0.78518512    -0.83000
C98         C  0.23677896  0.09860265  0.71530562     0.97800
C99         C  0.17958922  0.08741866  0.66692630     1.05200
O100        O  0.17650853  0.07522308  0.73182732    -1.12000
O101        O  0.11962191  0.08288686  0.74726569    -0.74400
O102        O  0.13619074  0.11927067  0.72848614    -0.77900
O103        O  0.23393322  0.07376559  0.71931012    -0.78600
C104        C  0.11672612  0.10629618  0.73813948     0.96700
O105        O  0.18535191  0.12465674  0.75939235    -0.76500
O106        O  0.14131766  0.02930432  0.74042793    -0.81700
C107        C  0.20295557  0.02826628  0.77158262     0.99300
C108        C  0.14902037  0.01687287  0.71961450     1.05200
O109        O  0.21079429  0.02874712  0.74744603    -0.77400
C110        C  0.17772743  0.11663995  0.78215378     1.03500
Fe111      Fe  0.88659317  0.23037903  0.30621878     1.65800
Fe112      Fe  0.93837078  0.26253513  0.33693455     1.73200
Fe113      Fe  0.95066729  0.22082450  0.28382381     1.54400
O114        O  0.93324434  0.18332743  0.28855131    -0.81100
O115        O  0.96256072  0.28270842  0.31085821    -0.79400
O116        O  0.89268593  0.18993717  0.30631349    -0.83600
O117        O  0.88606903  0.23092595  0.26499837    -0.78500
O118        O  0.97732050  0.21095430  0.31356059    -0.80200
O119        O  0.90879030  0.29077269  0.32929260    -0.83000
C120        C  0.90288030  0.22991151  0.24611899     0.97800
C121        C  0.91102383  0.17475164  0.29755729     1.05200
O122        O  0.92523363  0.23788853  0.30900204    -1.12000
O123        O  0.91562862  0.24626321  0.36698950    -0.74400
O124        O  0.87979647  0.22934332  0.34694713    -0.77900
O125        O  0.92782054  0.22776726  0.25011876    -0.78600
C126        C  0.89216991  0.23670155  0.36775484     0.96700
O127        O  0.87689598  0.26997235  0.30587186    -0.76500
O128        O  0.96961141  0.23755869  0.34823727    -0.81700
C129        C  0.97400117  0.27819003  0.28882021     0.99300
C130        C  0.98287915  0.21916132  0.33680548     1.05200
O131        O  0.97096708  0.25639126  0.27609517    -0.77400
C132        C  0.88655714  0.29059080  0.31692360     1.03500
Fe133      Fe  0.72463102  0.32389372  0.59922833     1.65800
Fe134      Fe  0.71314484  0.30240939  0.53578389     1.73200
Fe135      Fe  0.76590148  0.34450354  0.54915896     1.54400
O136        O  0.75525690  0.37851390  0.56991226    -0.81100
O137        O  0.74625971  0.28928701  0.51430943    -0.79400
O138        O  0.73119983  0.36404965  0.60427168    -0.83600
O139        O  0.76295938  0.31469093  0.61077277    -0.78500
O140        O  0.74539445  0.35943406  0.51632173    -0.80200
O141        O  0.71563432  0.26789779  0.55826196    -0.83000
C142        C  0.78627563  0.31888869  0.60184013     0.97800
C143        C  0.74272416  0.38256365  0.59153534     1.05200
O144        O  0.73448123  0.32374507  0.56130896    -1.12000
O145        O  0.67658621  0.31113470  0.55384091    -0.74400
O146        O  0.68498479  0.33222466  0.59206042    -0.77900
O147        O  0.79038971  0.33130123  0.58008819    -0.78600
C148        C  0.66879349  0.32248865  0.57515987     0.96700
O149        O  0.71645726  0.28388921  0.59958096    -0.76500
O150        O  0.70837093  0.33485733  0.51080477    -0.81700
C151        C  0.77114952  0.29446327  0.51407315     0.99300
C152        C  0.72356929  0.35414232  0.50432200     1.05200
O153        O  0.78112458  0.31356164  0.52717557    -0.77400
C154        C  0.71421219  0.26462613  0.58331746     1.03500
Fe155      Fe  0.67637759  0.39395897  0.27248420     1.65800
Fe156      Fe  0.65210570  0.44092682  0.23044871     1.73200
Fe157      Fe  0.69681410  0.45871228  0.27839567     1.54400
O158        O  0.68456586  0.44728720  0.31605448    -0.81100
O159        O  0.67679051  0.47065925  0.21626622    -0.79400
O160        O  0.67541690  0.40384780  0.31258695    -0.83600
O161        O  0.71727467  0.39328838  0.27274772    -0.78500
O162        O  0.66511349  0.48593643  0.27757494    -0.80200
O163        O  0.67165461  0.41418710  0.20599533    -0.83000
C164        C  0.73557153  0.41001948  0.27762561     0.97800
C165        C  0.67838424  0.42496416  0.32636096     1.05200
O166        O  0.67510865  0.43121560  0.26068477    -1.12000
O167        O  0.62323268  0.41243343  0.23818068    -0.74400
O168        O  0.63542011  0.38952418  0.27370128    -0.77900
O169        O  0.73084862  0.43471492  0.28131146    -0.78600
C170        C  0.61850298  0.39483598  0.25563529     0.96700
O171        O  0.67817117  0.37996215  0.23352290    -0.76500
O172        O  0.63166618  0.46857105  0.25345446    -0.81700
C173        C  0.69999377  0.47935081  0.22151842     0.99300
C174        C  0.64110812  0.48658048  0.26875654     1.05200
O175        O  0.71206783  0.47330008  0.24290844    -0.77400
C176        C  0.67845925  0.39012181  0.21017093     1.03500
Fe177      Fe  0.31361977  0.61766131  0.72572815     1.65800
Fe178      Fe  0.29149652  0.55481534  0.71147600     1.73200
Fe179      Fe  0.33938787  0.56464134  0.75970121     1.54400
O180        O  0.37038291  0.59059550  0.75068070    -0.81100
O181        O  0.27824280  0.53464103  0.74490855    -0.79400
O182        O  0.35440656  0.62142547  0.72332842    -0.83600
O183        O  0.31391381  0.62695821  0.76573123    -0.78500
O184        O  0.35550935  0.53685967  0.73350464    -0.80200
O185        O  0.25803795  0.57927991  0.71446972    -0.83000
C186        C  0.31740142  0.61465087  0.78759765     0.97800
C187        C  0.37359671  0.61111115  0.73622988     1.05200
O188        O  0.31481505  0.57898233  0.73228505    -1.12000
O189        O  0.30156387  0.57198253  0.67509512    -0.74400
O190        O  0.31310457  0.61345700  0.68508501    -0.77900
O191        O  0.32531256  0.59058112  0.78873425    -0.78600
C192        C  0.30810430  0.59550661  0.66810866     0.96700
O193        O  0.27254289  0.61920394  0.72696830    -0.76500
O194        O  0.32176404  0.52701066  0.70614920    -0.81700
C195        C  0.28966133  0.52801281  0.76652638     0.99300
C196        C  0.34513227  0.52258498  0.71515759     1.05200
O197        O  0.31233286  0.53689573  0.77353015    -0.77400
C198        C  0.25370562  0.60344497  0.72094395     1.03500
Fe199      Fe  0.38878428  0.27871654  0.67995534     1.65800
Fe200      Fe  0.43946083  0.24400711  0.65098804     1.73200
Fe201      Fe  0.45331909  0.29133819  0.69832205     1.54400
O202        O  0.43723057  0.32829999  0.68780933    -0.81100
O203        O  0.46936655  0.22988267  0.67599855    -0.79400
O204        O  0.39386115  0.31942756  0.68315018    -0.83600
O205        O  0.38986328  0.27450588  0.72065223    -0.78500
O206        O  0.48081880  0.29463356  0.66720004    -0.80200
O207        O  0.41423598  0.21516807  0.66693418    -0.83000
C208        C  0.40633978  0.28233882  0.73821077     0.97800
C209        C  0.41305694  0.33590736  0.68516164     1.05200
O210        O  0.42725089  0.27145436  0.67637392    -1.12000
O211        O  0.41098027  0.25368129  0.62202326    -0.74400
O212        O  0.38320241  0.28352694  0.63952387    -0.77900
O213        O  0.42970619  0.29063922  0.73257421    -0.78600
C214        C  0.39125507  0.26967660  0.61998374     0.96700
O215        O  0.37816761  0.23902458  0.67782576    -0.76500
O216        O  0.46632030  0.26996273  0.63310470    -0.81700
C217        C  0.47844499  0.23545736  0.69901099     0.99300
C218        C  0.48314660  0.28601635  0.64337151     1.05200
O219        O  0.47196598  0.25656413  0.71154823    -0.77400
C220        C  0.39006214  0.21691391  0.67455874     1.03500
Fe221      Fe  0.59909329  0.72853165  0.30578546     1.65800
Fe222      Fe  0.53416689  0.71701706  0.28684817     1.73200
Fe223      Fe  0.54894442  0.76731569  0.33105613     1.54400
O224        O  0.57557246  0.75871953  0.36141245    -0.81100
O225        O  0.51413110  0.75076915  0.27325199    -0.79400
O226        O  0.60513989  0.72929517  0.34639955    -0.83600
O227        O  0.61049994  0.76809307  0.30239080    -0.78500
O228        O  0.52040837  0.74404716  0.34974429    -0.80200
O229        O  0.55683778  0.71764290  0.25214938    -0.83000
C230        C  0.59934793  0.79068495  0.30531855     0.97800
C231        C  0.59581022  0.74388460  0.36482252     1.05200
O232        O  0.56068923  0.73750815  0.30793565    -1.12000
O233        O  0.55039243  0.68006048  0.29695501    -0.74400
O234        O  0.59278675  0.68784980  0.30814777    -0.77900
O235        O  0.57579359  0.79358514  0.31423774    -0.78600
C236        C  0.57361127  0.67188777  0.30335821     0.96700
O237        O  0.59854920  0.72648629  0.26500063    -0.76500
O238        O  0.50825048  0.71406180  0.31897698    -0.81700
C239        C  0.50982364  0.77361568  0.28331053     0.99300
C240        C  0.50517884  0.72547774  0.34147891     1.05200
O241        O  0.52084312  0.78147900  0.30462594    -0.77400
C242        C  0.58148926  0.72108262  0.24706558     1.03500
Fe243      Fe  0.26387689  0.68694880  0.38707763     1.65800
Fe244      Fe  0.22689121  0.66518172  0.43971392     1.73200
Fe245      Fe  0.27924223  0.70772310  0.44993670     1.54400
O246        O  0.31456263  0.70052668  0.42897157    -0.81100
O247        O  0.21141404  0.69712881  0.46035423    -0.79400
O248        O  0.30383966  0.67846958  0.39214491    -0.83600
O249        O  0.27109886  0.72764523  0.38662426    -0.78500
O250        O  0.28730835  0.67496595  0.47358088    -0.80200
O251        O  0.20085352  0.67490050  0.40905889    -0.83000
C252        C  0.27228267  0.74639924  0.40369166     0.97800
C253        C  0.32117551  0.68846866  0.40760667     1.05200
O254        O  0.25668796  0.68651221  0.42554894    -1.12000
O255        O  0.23871864  0.63107234  0.41983318    -0.74400
O256        O  0.25678973  0.64660098  0.38226541    -0.77900
O257        O  0.27293761  0.74225210  0.42863383    -0.78600
C258        C  0.24735949  0.62767913  0.39626493     0.96700
O259        O  0.22481163  0.69523962  0.37755991    -0.76500
O260        O  0.24876719  0.65257573  0.47262169    -0.81700
C261        C  0.22242087  0.71488702  0.47460797     0.99300
C262        C  0.27196052  0.65675329  0.48228249     1.05200
O263        O  0.24749943  0.71903452  0.47437223    -0.77400
C264        C  0.20271754  0.68732979  0.38709811     1.03500
Fe265      Fe  0.80888745  0.61181092  0.76699054     1.65800
Fe266      Fe  0.83400474  0.56215907  0.72845912     1.73200
Fe267      Fe  0.78796361  0.54761511  0.77681820     1.54400
O268        O  0.79819355  0.56213733  0.81396120    -0.81100
O269        O  0.80837444  0.53322015  0.71435989    -0.79400
O270        O  0.80817418  0.60481253  0.80723287    -0.83600
O271        O  0.76777641  0.61241579  0.76555197    -0.78500
O272        O  0.81955428  0.52076713  0.77975250    -0.80200
O273        O  0.81675402  0.58866884  0.70175705    -0.83000
C274        C  0.74930831  0.59588406  0.77091009     0.97800
C275        C  0.80381285  0.58521565  0.82260817     1.05200
O276        O  0.81027850  0.57380277  0.75755983    -1.12000
O277        O  0.86370779  0.58971988  0.73673342    -0.74400
O278        O  0.84988629  0.61613410  0.76941120    -0.77900
O279        O  0.75394254  0.57147558  0.77603258    -0.78600
C280        C  0.86761107  0.60879558  0.75294206     0.96700
O281        O  0.80897794  0.62386824  0.72783799    -0.76500
O282        O  0.85262983  0.53456298  0.75308476    -0.81700
C283        C  0.78575603  0.52389584  0.72075560     0.99300
C284        C  0.84317153  0.51850685  0.77037919     1.05200
O285        O  0.77411404  0.52964798  0.74242423    -0.77400
C286        C  0.81012436  0.61294489  0.70501832     1.03500
Fe287      Fe  0.88696891  0.27782440  0.81579047     1.65800
Fe288      Fe  0.95092353  0.29114636  0.79618565     1.73200
Fe289      Fe  0.93818739  0.24110479  0.84123865     1.54400
O290        O  0.91140612  0.25012527  0.87160383    -0.81100
O291        O  0.97012912  0.25745802  0.78158285    -0.79400
O292        O  0.88301594  0.28063668  0.85647472    -0.83600
O293        O  0.87594350  0.23815128  0.81684705    -0.78500
O294        O  0.96583783  0.26552736  0.85938586    -0.80200
O295        O  0.92685855  0.29106118  0.76227955    -0.83000
C296        C  0.88741887  0.21569248  0.81945711     0.97800
C297        C  0.89183092  0.26599810  0.87509232     1.05200
O298        O  0.92542683  0.27004788  0.81767536    -1.12000
O299        O  0.93495414  0.32768501  0.80767708    -0.74400
O300        O  0.89197067  0.31860167  0.81425836    -0.77900
O301        O  0.91189020  0.21352042  0.82568886    -0.78600
C302        C  0.91098434  0.33514447  0.81154100     0.96700
O303        O  0.88673626  0.27602147  0.77488537    -0.76500
O304        O  0.97783068  0.29424383  0.82751884    -0.81700
C305        C  0.97584402  0.23503424  0.79196142     0.99300
C306        C  0.98071774  0.28402555  0.85059798     1.05200
O307        O  0.96639885  0.22740247  0.81420293    -0.77400
C308        C  0.90285821  0.28434538  0.75718515     1.03500
Fe309      Fe  0.76885968  0.68230353  0.10030032     1.65800
Fe310      Fe  0.77923547  0.70264504  0.03693763     1.73200
Fe311      Fe  0.73122906  0.65699240  0.05065491     1.54400
O312        O  0.73876730  0.62815246  0.07951683    -0.81100
O313        O  0.74423192  0.71868369  0.02225818    -0.79400
O314        O  0.77406868  0.64170832  0.10272481    -0.83600
O315        O  0.72906670  0.67901004  0.11226080    -0.78500
O316        O  0.75655459  0.63757077  0.02492922    -0.80200
O317        O  0.78247673  0.73538016  0.06257846    -0.83000
C318        C  0.70652996  0.67945336  0.10033220     0.97800
C319        C  0.75685360  0.62409359  0.09685909     1.05200
O320        O  0.75989189  0.68065739  0.06261656    -1.12000
O321        O  0.81604278  0.68859966  0.04927654    -0.74400
O322        O  0.80959136  0.68620236  0.09309399    -0.77900
O323        O  0.70414286  0.67526659  0.07548335    -0.78600
C324        C  0.82503251  0.68693699  0.07287911     0.96700
O325        O  0.76448637  0.72297732  0.10123306    -0.76500
O326        O  0.77858008  0.67260337  0.00833962    -0.81700
C327        C  0.72414053  0.70601715  0.01339505     0.99300
C328        C  0.77155851  0.64818972  0.00746145     1.05200
O329        O  0.71896810  0.68221137  0.02027271    -0.77400
C330        C  0.77453827  0.74064406  0.08613445     1.03500
Fe331      Fe  0.17838129  0.40151605  0.22193153     1.65800
Fe332      Fe  0.19610240  0.46569125  0.20980761     1.73200
Fe333      Fe  0.14883038  0.45154387  0.25725846     1.54400
O334        O  0.11989817  0.42321853  0.24780035    -0.81100
O335        O  0.20994345  0.48266449  0.24474592    -0.79400
O336        O  0.13778649  0.39599465  0.21778354    -0.83600
O337        O  0.17708803  0.39089195  0.26186908    -0.78500
O338        O  0.13067980  0.47867424  0.23184852    -0.80200
O339        O  0.23040615  0.44206515  0.20889730    -0.83000
C340        C  0.17334390  0.40260592  0.28404013     0.97800
C341        C  0.11836268  0.40315038  0.23231940     1.05200
O342        O  0.17435948  0.43959999  0.22959344    -1.12000
O343        O  0.18458467  0.45078521  0.17293005    -0.74400
O344        O  0.18082448  0.40730642  0.18110737    -0.77900
O345        O  0.16454446  0.42627946  0.28570945    -0.78600
C346        C  0.18201711  0.42680194  0.16495872     0.96700
O347        O  0.21943496  0.40233378  0.22500762    -0.76500
O348        O  0.16510314  0.49324674  0.20757621    -0.81700
C349        C  0.19779359  0.48869317  0.26615974     0.99300
C350        C  0.14103233  0.49515272  0.21555111     1.05200
O351        O  0.17438224  0.48058161  0.27164278    -0.77400
C352        C  0.23666783  0.41852869  0.21593730     1.03500
Fe353      Fe  0.09801469  0.73685160  0.18047054     1.65800
Fe354      Fe  0.04649546  0.77460097  0.15684612     1.73200
Fe355      Fe  0.03445953  0.72474308  0.20223499     1.54400
O356        O  0.05342829  0.68838062  0.19489454    -0.81100
O357        O  0.02465238  0.79132852  0.18693421    -0.79400
O358        O  0.09163559  0.69680981  0.17366796    -0.83600
O359        O  0.09852836  0.73091407  0.22125657    -0.78500
O360        O  0.00922908  0.71730925  0.17059262    -0.80200
O361        O  0.07725684  0.80034230  0.16742508    -0.83000
C362        C  0.08172935  0.73056257  0.24021786     0.97800
C363        C  0.07457969  0.68057051  0.18311187     1.05200
O364        O  0.05958990  0.74530250  0.17969277    -1.12000
O365        O  0.06716882  0.76209262  0.12356819    -0.74400
O366        O  0.10359158  0.74240644  0.13987979    -0.77900
O367        O  0.05667633  0.73025829  0.23638318    -0.78600
C368        C  0.09040853  0.75243916  0.12065855     0.96700
O369        O  0.10839731  0.77582170  0.18764224    -0.76500
O370        O  0.01364299  0.75286100  0.14389181    -0.81700
C371        C  0.01124507  0.78234272  0.20635697     0.99300
C372        C  0.00205375  0.73134167  0.15074886     1.05200
O373        O  0.01207418  0.75798551  0.21330948    -0.77400
C374        C  0.09917538  0.79817662  0.18007113     1.03500
Fe375      Fe  0.21653395  0.32470743  0.88685795     1.65800
Fe376      Fe  0.25826492  0.34627189  0.93537431     1.73200
Fe377      Fe  0.20565536  0.30567645  0.95070194     1.54400
O378        O  0.16953462  0.31453561  0.93177907    -0.81100
O379        O  0.27409774  0.31501084  0.95613175    -0.79400
O380        O  0.17885011  0.33856775  0.89574845    -0.83600
O381        O  0.20326962  0.28563045  0.88845385    -0.78500
O382        O  0.20081034  0.33907485  0.97425995    -0.80200
O383        O  0.28071271  0.33384351  0.90264113    -0.83000
C384        C  0.20330426  0.26669306  0.90525589     0.97800
C385        C  0.16209888  0.32860950  0.91189412     1.05200
O386        O  0.22691503  0.32558232  0.92444104    -1.12000
O387        O  0.24616390  0.38023011  0.91561111    -0.74400
O388        O  0.22835317  0.36341383  0.87868444    -0.77900
O389        O  0.20870986  0.27030409  0.92971931    -0.78600
C390        C  0.23847263  0.38265342  0.89165603     0.96700
O391        O  0.25364197  0.31092555  0.87563293    -0.76500
O392        O  0.23980324  0.36053634  0.96976672    -0.81700
C393        C  0.26365662  0.29843437  0.97204731     0.99300
C394        C  0.21747892  0.35682316  0.98142615     1.05200
O395        O  0.23865361  0.29402656  0.97316221    -0.77400
C396        C  0.27680755  0.31894826  0.88243385     1.03500
Fe397      Fe  0.60220571  0.78504670  0.81339230     1.65800
Fe398      Fe  0.55586797  0.74433942  0.84166823     1.73200
Fe399      Fe  0.53640442  0.79216281  0.79703001     1.54400
O400        O  0.54913169  0.82978154  0.80796425    -0.81100
O401        O  0.52641981  0.72884881  0.81742818    -0.79400
O402        O  0.59317631  0.82521109  0.81277166    -0.83600
O403        O  0.60031997  0.78294790  0.77246394    -0.78500
O404        O  0.51070272  0.79269846  0.82965894    -0.80200
O405        O  0.58271687  0.71882952  0.82330599    -0.83000
C406        C  0.58250482  0.78873709  0.75535853     0.97800
C407        C  0.57229730  0.83953782  0.81147507     1.05200
O408        O  0.56478758  0.77397773  0.81740183    -1.12000
O409        O  0.58422497  0.75463056  0.86975180    -0.74400
O410        O  0.60847931  0.78816781  0.85392356    -0.77900
O411        O  0.55845785  0.79388640  0.76181180    -0.78600
C412        C  0.60215359  0.77226376  0.87256376     0.96700
O413        O  0.61619018  0.74629602  0.81309077    -0.76500
O414        O  0.52812868  0.76725927  0.86192033    -0.81700
C415        C  0.51656779  0.73460168  0.79485574     0.99300
C416        C  0.51047115  0.78338851  0.85333101     1.05200
O417        O  0.52060077  0.75673987  0.78336647    -0.77400
C418        C  0.60652250  0.72301672  0.81546335     1.03500
Fe419      Fe  0.26964844  0.81623346  0.89068382     1.65800
Fe420      Fe  0.27881482  0.80042213  0.95659990     1.73200
Fe421      Fe  0.22835972  0.84318718  0.93766749     1.54400
O422        O  0.24033007  0.87435329  0.91321757    -0.81100
O423        O  0.24467145  0.78956065  0.97736394    -0.79400
O424        O  0.26616436  0.85638850  0.88191121    -0.83600
O425        O  0.23122010  0.80988566  0.87779039    -0.78500
O426        O  0.24898657  0.86069759  0.96879642    -0.80200
O427        O  0.27626896  0.76422555  0.93693364    -0.83000
C428        C  0.20814829  0.81657224  0.88580957     0.97800
C429        C  0.25370138  0.87615088  0.89176949     1.05200
O430        O  0.25896879  0.82002464  0.92833127    -1.12000
O431        O  0.31626973  0.80758528  0.93989666    -0.74400
O432        O  0.30958558  0.82209136  0.89854444    -0.77900
O433        O  0.20393946  0.82853992  0.90770902    -0.78600
C434        C  0.32508765  0.81585841  0.91761513     0.96700
O435        O  0.27384271  0.77552253  0.89398426    -0.76500
O436        O  0.28312431  0.83436592  0.97976347    -0.81700
C437        C  0.22030543  0.79658539  0.97755164     0.99300
C438        C  0.26916429  0.85535263  0.98322633     1.05200
O439        O  0.21156340  0.81532285  0.96291396    -0.77400
C440        C  0.27544411  0.75816893  0.91237423     1.03500
Fe441      Fe  0.68329020  0.10968738  0.76482259     1.65800
Fe442      Fe  0.70103636  0.04501080  0.77832374     1.73200
Fe443      Fe  0.65985791  0.05953216  0.72517867     1.54400
O444        O  0.62647623  0.08192501  0.73578379    -0.81100
O445        O  0.71526955  0.02398032  0.74556927    -0.79400
O446        O  0.64305755  0.11673653  0.75756205    -0.83600
O447        O  0.69269171  0.12011457  0.72625977    -0.78500
O448        O  0.64366713  0.02735124  0.74516231    -0.80200
O449        O  0.73639778  0.06623614  0.77792648    -0.83000
C450        C  0.68623144  0.11112593  0.70350719     0.97800
C451        C  0.62363073  0.10483347  0.74627554     1.05200
O452        O  0.68128190  0.07136913  0.75623822    -1.12000
O453        O  0.69028237  0.06292576  0.81408569    -0.74400
O454        O  0.67487386  0.10373533  0.80466105    -0.77900
O455        O  0.67310763  0.08969802  0.70048310    -0.78600
C456        C  0.68086174  0.08540633  0.82114222     0.96700
O457        O  0.72369128  0.10851436  0.77283176    -0.76500
O458        O  0.66826597  0.02026690  0.78171374    -0.81700
C459        C  0.71022818  0.02362584  0.72070666     0.99300
C460        C  0.64875439  0.01471512  0.76649892     1.05200
O461        O  0.69080709  0.03640998  0.71054376    -0.77400
C462        C  0.74148692  0.09097583  0.77712450     1.03500
Fe463      Fe  0.38168101  0.23231680  0.17673278     1.65800
Fe464      Fe  0.44428903  0.21754832  0.19788930     1.73200
Fe465      Fe  0.43397510  0.26683868  0.15217443     1.54400
O466        O  0.40549553  0.26085965  0.12251125    -0.81100
O467        O  0.46240217  0.25100291  0.21374805    -0.79400
O468        O  0.37954842  0.22775537  0.13619761    -0.83600
O469        O  0.37218661  0.27241222  0.17399574    -0.78500
O470        O  0.45890646  0.23987219  0.13343316    -0.80200
O471        O  0.41860480  0.21693281  0.23064796    -0.83000
C472        C  0.38482297  0.29444260  0.17367952     0.97800
C473        C  0.38687932  0.24414591  0.11844178     1.05200
O474        O  0.42002075  0.23895658  0.17580707    -1.12000
O475        O  0.42869688  0.18175021  0.18433305    -0.74400
O476        O  0.38583028  0.19162212  0.17962915    -0.77900
O477        O  0.40985454  0.29572480  0.16937109    -0.78600
C478        C  0.40451986  0.17466356  0.18088630     0.96700
O479        O  0.38028353  0.23569935  0.21742723    -0.76500
O480        O  0.47285870  0.21537691  0.16782397    -0.81700
C481        C  0.47179403  0.27103556  0.20145762     0.99300
C482        C  0.47497633  0.22301958  0.14369760     1.05200
O483        O  0.46444462  0.27751452  0.17808363    -0.77400
C484        C  0.39516068  0.22565953  0.23532587     1.03500
Fe485      Fe  0.71613111  0.18878602  0.09810368     1.65800
Fe486      Fe  0.75316862  0.16124064  0.04900586     1.73200
Fe487      Fe  0.70374172  0.20599794  0.03377485     1.54400
O488        O  0.66716390  0.19418003  0.04871504    -0.81100
O489        O  0.76687880  0.18688736  0.01947628    -0.79400
O490        O  0.67534446  0.19319891  0.09225574    -0.83600
O491        O  0.72148372  0.22913659  0.09635390    -0.78500
O492        O  0.70195727  0.17436093  0.00710437    -0.80200
O493        O  0.78082075  0.17856531  0.07471530    -0.83000
C494        C  0.71260073  0.24627205  0.07998711     0.97800
C495        C  0.65916242  0.19371363  0.07269251     1.05200
O496        O  0.72425724  0.18526507  0.06016437    -1.12000
O497        O  0.74375558  0.13244510  0.07745962    -0.74400
O498        O  0.71068743  0.14840832  0.10263871    -0.77900
O499        O  0.70302860  0.24023859  0.05723864    -0.78600
C500        C  0.72631405  0.12965823  0.09573345     0.96700
O501        O  0.75556745  0.18576467  0.11029188    -0.76500
O502        O  0.72829774  0.14186352  0.02224858    -0.81700
C503        C  0.75992022  0.20953565  0.01040053     0.99300
C504        C  0.71114955  0.15067965  0.00571405     1.05200
O505        O  0.73782687  0.22056151  0.01600559    -0.77400
C506        C  0.77838201  0.18460237  0.09920140     1.03500
Fe507      Fe  0.30065752  0.90041181  0.22323862     1.65800
Fe508      Fe  0.33142192  0.94823871  0.25997394     1.73200
Fe509      Fe  0.28591926  0.96540375  0.21176621     1.54400
O510        O  0.28728843  0.94471191  0.17560342    -0.81100
O511        O  0.30397501  0.97278562  0.27843231    -0.79400
O512        O  0.30819342  0.90638973  0.18347098    -0.83600
O513        O  0.25987148  0.90508085  0.21786986    -0.78500
O514        O  0.32053004  0.98471266  0.20134596    -0.80200
O515        O  0.31973806  0.91756827  0.28562076    -0.83000
C516        C  0.24291640  0.92389184  0.21966233     0.97800
C517        C  0.29765830  0.92295708  0.16755911     1.05200
O518        O  0.30605501  0.93805220  0.23176589    -1.12000
O519        O  0.36207554  0.92463415  0.24528907    -0.74400
O520        O  0.34042707  0.88983846  0.22839065    -0.77900
O521        O  0.24947987  0.94831375  0.22070349    -0.78600
C522        C  0.36181057  0.90089903  0.23637375     0.96700
O523        O  0.29274614  0.89100268  0.26200407    -0.76500
O524        O  0.34609216  0.98001887  0.23761772    -0.81700
C525        C  0.28786964  0.98991026  0.26898508     0.99300
C526        C  0.34086601  0.99089413  0.21517699     1.05200
O527        O  0.28121799  0.99055949  0.24451374    -0.77400
C528        C  0.30425669  0.89751030  0.28353439     1.03500
C529        C  0.37416075  0.04471578  0.17274917    -0.11300
C530        C  0.38179410  0.06262702  0.19282841     0.11300
C531        C  0.37857110  0.05562604  0.22000964    -0.03100
C532        C  0.36735462  0.03073453  0.22617771    -0.05800
C533        C  0.35773808  0.01352716  0.20619770    -0.16600
C534        C  0.36180598  0.02022872  0.17888999     0.02300
C535        C  0.38830318  0.09032698  0.18508127     0.12300
C536        C  0.38507605  0.07512692  0.24241722     0.62900
H537        H  0.36396245  0.02553209  0.24688047     0.12300
C538        C  0.35238034  0.00241650  0.15618806     0.55000
H539        H  0.37631631  0.05092096  0.15214354     0.08100
C540        C  0.41470304  0.09939112  0.18126749    -0.05700
C541        C  0.41912258  0.12706094  0.17919296    -0.06500
C542        C  0.39778909  0.14558798  0.17943209    -0.16100
C543        C  0.37091701  0.13564667  0.17961310    -0.01600
C544        C  0.36691396  0.10812333  0.18289949    -0.09200
C545        C  0.43775728  0.07982055  0.17859414     0.65100
H546        H  0.43944303  0.13434591  0.17761933     0.10500
C547        C  0.34621604  0.15332708  0.17689438     0.63500
H548        H  0.34685268  0.10015591  0.18488371     0.07900
F549        F  0.35958647  0.97619531  0.16107690    -0.19600
F550        F  0.36363238  0.00988244  0.13205683    -0.15800
F551        F  0.32486784  0.00418525  0.15362505    -0.19300
F552        F  0.36888292  0.09742399  0.24039181    -0.22700
F553        F  0.41152417  0.08297862  0.24092431    -0.24100
F554        F  0.38100085  0.06394153  0.26737003    -0.18100
F555        F  0.34786553  0.16824166  0.15369128    -0.20600
F556        F  0.34404004  0.17000909  0.19878786    -0.21800
F557        F  0.32281977  0.13856610  0.17542333    -0.19000
F558        F  0.46199082  0.09276918  0.17518077    -0.19100
F559        F  0.43339041  0.06373268  0.15658096    -0.22900
F560        F  0.43968214  0.06388117  0.20102628    -0.24500
C561        C  0.53795073  0.18620531  0.12082393    -0.11300
C562        C  0.54738311  0.20402018  0.10149186     0.11300
C563        C  0.53073644  0.22493323  0.09245088    -0.03100
C564        C  0.50652667  0.22965988  0.10594868    -0.05800
C565        C  0.49819949  0.21357703  0.12750188    -0.16600
C566        C  0.51332820  0.19026583  0.13380301     0.02300
C567        C  0.57586020  0.20196634  0.09347795     0.12300
C568        C  0.53858284  0.24204991  0.06867706     0.62900
H569        H  0.49445394  0.24669416  0.10029820     0.12300
C570        C  0.50405485  0.16965111  0.15404992     0.55000
H571        H  0.55081049  0.16980410  0.12672192     0.08100
C572        C  0.59609894  0.21472355  0.10858196    -0.05700
C573        C  0.62286459  0.21138777  0.10084766    -0.06500
C574        C  0.63008854  0.19571016  0.07870505    -0.16100
C575        C  0.60972978  0.18295395  0.06352106    -0.01600
C576        C  0.58279752  0.18625050  0.07137383    -0.09200
C577        C  0.58944375  0.23162071  0.13296140     0.65100
H578        H  0.63851728  0.22126113  0.11209825     0.10500
C579        C  0.61626580  0.16549389  0.03962205     0.63500
H580        H  0.56686301  0.17659527  0.06033739     0.07900
F581        F  0.50730366  0.17938106  0.17968232    -0.19600
F582        F  0.51858293  0.14617616  0.15205448    -0.15800
F583        F  0.47743210  0.16344350  0.14965117    -0.19300
F584        F  0.54060609  0.22606091  0.04626839    -0.22700
F585        F  0.56294127  0.25433939  0.07313826    -0.24100
F586        F  0.51979964  0.26173116  0.06352681    -0.18100
F587        F  0.59388671  0.15216542  0.03022469    -0.20600
F588        F  0.63517948  0.14656989  0.04667618    -0.21800
F589        F  0.62609230  0.18108052  0.01906384    -0.19000
F590        F  0.61209426  0.24286643  0.14425683    -0.19100
F591        F  0.57722279  0.21599374  0.15215362    -0.22900
F592        F  0.57237829  0.25216539  0.12590939    -0.24500
C593        C  0.66814699  0.08396221  0.89629040    -0.11300
C594        C  0.68422107  0.10548308  0.90441849     0.11300
C595        C  0.69843231  0.12053594  0.88512099    -0.03100
C596        C  0.69561309  0.11376884  0.85809178    -0.05800
C597        C  0.67999074  0.09199971  0.84988757    -0.16600
C598        C  0.66592756  0.07677797  0.86911788     0.02300
C599        C  0.68694350  0.11167933  0.93326915     0.12300
C600        C  0.71712445  0.14319976  0.89308194     0.62900
H601        H  0.70658268  0.12482685  0.84306767     0.12300
C602        C  0.64847473  0.05342818  0.86088290     0.55000
H603        H  0.65776636  0.07257150  0.91145815     0.08100
C604        C  0.66925185  0.12925402  0.94644557    -0.05700
C605        C  0.67706163  0.14001443  0.97119516    -0.06500
C606        C  0.70181219  0.13352723  0.98311928    -0.16100
C607        C  0.71778613  0.11309608  0.97130001    -0.01600
C608        C  0.70982845  0.10250099  0.94650183    -0.09200
C609        C  0.64266539  0.13706397  0.93398498     0.65100
H610        H  0.66429233  0.15455065  0.98087444     0.10500
C611        C  0.74363809  0.10309027  0.98378115     0.63500
H612        H  0.72243130  0.08823836  0.93620199     0.07900
F613        F  0.63415166  0.04328250  0.88224632    -0.19600
F614        F  0.66424353  0.03317367  0.85068703    -0.15800
F615        F  0.63040443  0.06157233  0.84157631    -0.19300
F616        F  0.73830296  0.13322801  0.90781716    -0.22700
F617        F  0.70350111  0.16184928  0.90821900    -0.24100
F618        F  0.72762278  0.15617835  0.87104477    -0.18100
F619        F  0.73826030  0.09237838  0.00860695    -0.20600
F620        F  0.76175805  0.12381280  0.98620992    -0.21800
F621        F  0.75558556  0.08328428  0.96862025    -0.19000
F622        F  0.62826087  0.15421144  0.95021965    -0.19100
F623        F  0.62738163  0.11442236  0.92987641    -0.22900
F624        F  0.64686445  0.14963516  0.90977171    -0.24500
C625        C  0.26444006  0.90257668  0.04317435    -0.11300
C626        C  0.28951414  0.89843753  0.05489381     0.11300
C627        C  0.30903988  0.88318710  0.04131804    -0.03100
C628        C  0.30214022  0.87122243  0.01686093    -0.05800
C629        C  0.27622759  0.87345842  0.00592804    -0.16600
C630        C  0.25726036  0.89047379  0.01883761     0.02300
C631        C  0.29269312  0.90579147  0.08339873     0.12300
C632        C  0.33666605  0.87861572  0.05323600     0.62900
H633        H  0.31669461  0.85879535  0.00677963     0.12300
C634        C  0.22907667  0.89503231  0.00819169     0.55000
H635        H  0.24987334  0.91411348  0.05426818     0.08100
C636        C  0.29861435  0.93196414  0.09218338    -0.05700
C637        C  0.30072671  0.93672834  0.11987415    -0.06500
C638        C  0.29659392  0.91626204  0.13869573    -0.16100
C639        C  0.28963606  0.89024704  0.12963834    -0.01600
C640        C  0.28787402  0.88561912  0.10208630    -0.09200
C641        C  0.30188583  0.95475312  0.07247396     0.65100
H642        H  0.30532294  0.95659213  0.12707329     0.10500
C643        C  0.28309111  0.86749963  0.14869438     0.63500
H644        H  0.28260371  0.86597697  0.09469677     0.07900
F645        F  0.23033518  0.90637102  0.98306116    -0.19600
F646        F  0.21445479  0.91219944  0.02421071    -0.15800
F647        F  0.21536694  0.87106105  0.00704347    -0.19300
F648        F  0.33462908  0.86377831  0.07641061    -0.22700
F649        F  0.34853485  0.90282579  0.05910367    -0.24100
F650        F  0.35331979  0.86501206  0.03583871    -0.18100
F651        F  0.27315636  0.84536902  0.13540590    -0.20600
F652        F  0.26386399  0.87560493  0.16682437    -0.21800
F653        F  0.30596377  0.85965683  0.16213584    -0.19000
F654        F  0.30965935  0.97812703  0.08502618    -0.19100
F655        F  0.27782508  0.95942142  0.05963588    -0.22900
F656        F  0.32107187  0.94842306  0.05365306    -0.24500
C657        C  0.60145681  0.90866535  0.82110014    -0.11300
C658        C  0.58951401  0.92206977  0.79958333     0.11300
C659        C  0.56868837  0.90961564  0.78501055    -0.03100
C660        C  0.56176156  0.88321201  0.79146685    -0.05800
C661        C  0.57556635  0.86888527  0.81128211    -0.16600
C662        C  0.59452556  0.88226729  0.82755512     0.02300
C663        C  0.60223182  0.94711800  0.79035758     0.12300
C664        C  0.55472868  0.92363714  0.76195733     0.62900
H665        H  0.54689783  0.87287343  0.77959181     0.12300
C666        C  0.60728994  0.86897993  0.85167973     0.55000
H667        H  0.61742610  0.91854116  0.83191136     0.08100
C668        C  0.59928715  0.97175202  0.80392082    -0.05700
C669        C  0.61444706  0.99378983  0.79521016    -0.06500
C670        C  0.63191365  0.99169824  0.77342204    -0.16100
C671        C  0.63439963  0.96721926  0.75956042    -0.01600
C672        C  0.61968741  0.94517900  0.76855617    -0.09200
C673        C  0.58047065  0.97463949  0.82751361     0.65100
H674        H  0.61310528  0.01273666  0.80555148     0.10500
C675        C  0.65343096  0.96413698  0.73613971     0.63500
H676        H  0.62208139  0.92594427  0.75895671     0.07900
F677        F  0.62005338  0.88742762  0.86787677    -0.19600
F678        F  0.62606920  0.85038561  0.84365216    -0.15800
F679        F  0.58778182  0.85649164  0.86677841    -0.19300
F680        F  0.57244913  0.92751937  0.74115159    -0.22700
F681        F  0.54505404  0.94810453  0.77027343    -0.24100
F682        F  0.53334679  0.90890379  0.75234163    -0.18100
F683        F  0.67917050  0.96986017  0.74439873    -0.20600
F684        F  0.64623706  0.98144380  0.71585387    -0.21800
F685        F  0.65323897  0.93846166  0.72588974    -0.19000
F686        F  0.57905295  0.00079509  0.83633814    -0.19100
F687        F  0.58925319  0.95899636  0.84848921    -0.22900
F688        F  0.55498248  0.96668800  0.82030209    -0.24500
C689        C  0.44696990  0.77951130  0.89458532    -0.11300
C690        C  0.43794276  0.80591309  0.89259323     0.11300
C691        C  0.45534361  0.82587956  0.88284381    -0.03100
C692        C  0.47975813  0.81796499  0.87122219    -0.05800
C693        C  0.48778671  0.79104515  0.87085281    -0.16600
C694        C  0.47200414  0.77171904  0.88436191     0.02300
C695        C  0.40934237  0.81128165  0.89855980     0.12300
C696        C  0.44810446  0.85523465  0.88495923     0.62900
H697        H  0.49251093  0.83267196  0.86177978     0.12300
C698        C  0.48091092  0.74285713  0.88714280     0.55000
H699        H  0.43362948  0.76482222  0.90320720     0.08100
C700        C  0.38952920  0.80821174  0.87860316    -0.05700
C701        C  0.36253424  0.81112472  0.88576753    -0.06500
C702        C  0.35451876  0.81620842  0.91225038    -0.16100
C703        C  0.37454807  0.81973567  0.93217988    -0.01600
C704        C  0.40173448  0.81720540  0.92484379    -0.09200
C705        C  0.39678267  0.80076071  0.85001442     0.65100
H706        H  0.34728913  0.80816187  0.87068363     0.10500
C707        C  0.36757996  0.82626564  0.96094780     0.63500
H708        H  0.41734726  0.81909250  0.93974509     0.07900
F709        F  0.48551901  0.73190894  0.86226477    -0.19600
F710        F  0.46184730  0.72734182  0.89983705    -0.15800
F711        F  0.50416496  0.74174216  0.90211543    -0.19300
F712        F  0.44372028  0.86165026  0.91145527    -0.22700
F713        F  0.42514242  0.86065907  0.87054773    -0.24100
F714        F  0.46840233  0.87146230  0.87546194    -0.18100
F715        F  0.35583471  0.80437589  0.97299282    -0.20600
F716        F  0.35015007  0.84772061  0.96173396    -0.21800
F717        F  0.39006704  0.83298152  0.97567070    -0.19000
F718        F  0.37443290  0.79933564  0.83370237    -0.19100
F719        F  0.40921524  0.77610482  0.84962558    -0.22900
F720        F  0.41389107  0.81955119  0.83925943    -0.24500
C721        C  0.30536698  0.24930090  0.01216789    -0.11300
C722        C  0.31820762  0.26701770  0.02972993     0.11300
C723        C  0.31309483  0.29477180  0.02811267    -0.03100
C724        C  0.29473885  0.30385311  0.00905457    -0.05800
C725        C  0.28153136  0.28621009  0.99181782    -0.16600
C726        C  0.28678388  0.25852412  0.99311587     0.02300
C727        C  0.33589084  0.25617609  0.05075158     0.12300
C728        C  0.32702115  0.31475299  0.04631464     0.62900
H729        H  0.29050102  0.32501469  0.00736761     0.12300
C730        C  0.27314657  0.23911101  0.97428228     0.55000
H731        H  0.30976532  0.22818588  0.01380592     0.08100
C732        C  0.32533557  0.24713916  0.07528120    -0.05700
C733        C  0.34313257  0.24172347  0.09621974    -0.06500
C734        C  0.37088553  0.24566772  0.09356764    -0.16100
C735        C  0.38155020  0.25310323  0.06836532    -0.01600
C736        C  0.36366222  0.25787094  0.04716027    -0.09200
C737        C  0.29534401  0.24425963  0.07961536     0.65100
H738        H  0.33521288  0.23582966  0.11545658     0.10500
C739        C  0.41141786  0.25631622  0.06373864     0.63500
H740        H  0.37110215  0.26455658  0.02798022     0.07900
F741        F  0.24587604  0.23913333  0.97896194    -0.19600
F742        F  0.28250706  0.21330748  0.97766547    -0.15800
F743        F  0.27784312  0.24659629  0.94811746    -0.19300
F744        F  0.35417603  0.31483391  0.04105989    -0.22700
F745        F  0.32295338  0.30806856  0.07278577    -0.24100
F746        F  0.31750733  0.34045348  0.04254561    -0.18100
F747        F  0.42490963  0.23416354  0.07330742    -0.20600
F748        F  0.42061728  0.27894137  0.07660538    -0.21800
F749        F  0.41735053  0.25890291  0.03685525    -0.19000
F750        F  0.28936051  0.23622411  0.10538087    -0.19100
F751        F  0.28520302  0.22536609  0.06223368    -0.22900
F752        F  0.28264728  0.26838478  0.07511120    -0.24500
C753        C  0.12289263  0.86788936  0.20056580    -0.11300
C754        C  0.15068310  0.86438441  0.19886960     0.11300
C755        C  0.16129246  0.83972640  0.18998211    -0.03100
C756        C  0.14352907  0.81911272  0.18341296    -0.05800
C757        C  0.11567381  0.82220948  0.18549958    -0.16600
C758        C  0.10498937  0.84717875  0.19378269     0.02300
C759        C  0.16874700  0.88630709  0.20718841     0.12300
C760        C  0.19132631  0.83494657  0.18795281     0.62900
H761        H  0.15138070  0.80006421  0.17683960     0.12300
C762        C  0.07504936  0.85182410  0.19621657     0.55000
H763        H  0.11539970  0.88695515  0.20747553     0.08100
C764        C  0.17735599  0.90619765  0.18907160    -0.05700
C765        C  0.20045801  0.92096666  0.19538749    -0.06500
C766        C  0.21450435  0.91641108  0.21921521    -0.16100
C767        C  0.20334358  0.89956911  0.23899242    -0.01600
C768        C  0.18050888  0.88463428  0.23253725    -0.09200
C769        C  0.16295770  0.91078210  0.16278522     0.65100
H770        H  0.20902230  0.93442558  0.18076770     0.10500
C771        C  0.21507046  0.89610991  0.26673830     0.63500
H772        H  0.17294172  0.87012149  0.24672769     0.07900
F773        F  0.06329631  0.85062100  0.17123397    -0.19600
F774        F  0.06930267  0.87661156  0.20702418    -0.15800
F775        F  0.06384715  0.83261590  0.21260459    -0.19300
F776        F  0.20269144  0.83567200  0.21311331    -0.22700
F777        F  0.20303306  0.85433521  0.17217304    -0.24100
F778        F  0.19715168  0.81034803  0.17676262    -0.18100
F779        F  0.22342638  0.86999035  0.27006966    -0.20600
F780        F  0.23648775  0.91289330  0.27159068    -0.21800
F781        F  0.19551774  0.90169257  0.28547946    -0.19000
F782        F  0.17438098  0.93139916  0.14833071    -0.19100
F783        F  0.13654637  0.91739220  0.16771878    -0.22900
F784        F  0.16380999  0.88791624  0.14735433    -0.24500
C785        C  0.12450963  0.78154332  0.05974414    -0.11300
C786        C  0.13898780  0.75947220  0.05049860     0.11300
C787        C  0.13499990  0.73415748  0.06244315    -0.03100
C788        C  0.11764150  0.73222158  0.08453139    -0.05800
C789        C  0.10378236  0.75456355  0.09434665    -0.16600
C790        C  0.10641839  0.77951289  0.08108271     0.02300
C791        C  0.16001990  0.76457241  0.03015448     0.12300
C792        C  0.14928319  0.70946144  0.05218309     0.62900
H793        H  0.11537986  0.71336637  0.09487988     0.12300
C794        C  0.09139702  0.80433114  0.09011161     0.55000
H795        H  0.12825087  0.80074792  0.05053947     0.08100
C796        C  0.15373167  0.77117407  0.00341821    -0.05700
C797        C  0.17435278  0.78032748  0.98665993    -0.06500
C798        C  0.20093976  0.78289961  0.99559873    -0.16100
C799        C  0.20745134  0.77468596  0.02201481    -0.01600
C800        C  0.18664133  0.76612005  0.03893064    -0.09200
C801        C  0.12529336  0.76917408  0.99277575     0.65100
H802        H  0.16963446  0.78639212  0.96649361     0.10500
C803        C  0.23586185  0.77580219  0.03285171     0.63500
H804        H  0.19081728  0.76135432  0.05961488     0.07900
F805        F  0.06412533  0.80017488  0.08783024    -0.19600
F806        F  0.09775563  0.82646878  0.07481826    -0.15800
F807        F  0.09777192  0.81010618  0.11632873    -0.19300
F808        F  0.17649341  0.71165386  0.05659585    -0.22700
F809        F  0.14469899  0.70660451  0.02511079    -0.24100
F810        F  0.14036537  0.68653221  0.06479035    -0.18100
F811        F  0.23712003  0.76841043  0.05947126    -0.20600
F812        F  0.24580556  0.80148720  0.03074337    -0.21800
F813        F  0.25196268  0.75842341  0.01862238    -0.19000
F814        F  0.12425268  0.77322595  0.96544646    -0.19100
F815        F  0.10925109  0.78816670  0.00476992    -0.22900
F816        F  0.11500374  0.74410914  0.99801766    -0.24500
C817        C  0.17518686  0.39168546  0.09758886    -0.11300
C818        C  0.19253732  0.40704056  0.08197536     0.11300
C819        C  0.20301587  0.43114323  0.09226400    -0.03100
C820        C  0.19782371  0.43770540  0.11913538    -0.05800
C821        C  0.18239646  0.42100353  0.13573596    -0.16600
C822        C  0.16980108  0.39817795  0.12435406     0.02300
C823        C  0.20062420  0.39608965  0.05564589     0.12300
C824        C  0.21947630  0.44975417  0.07486048     0.62900
H825        H  0.20676936  0.45545526  0.12765336     0.12300
C826        C  0.15123566  0.38014323  0.14017925     0.55000
H827        H  0.16695454  0.37362638  0.08895052     0.08100
C828        C  0.22205363  0.37764669  0.05344637    -0.05700
C829        C  0.22769483  0.36652117  0.02832202    -0.06500
C830        C  0.21177875  0.37210547  0.00594422    -0.16100
C831        C  0.19015509  0.39022084  0.00813237    -0.01600
C832        C  0.18513046  0.40229698  0.03306911    -0.09200
C833        C  0.23806757  0.36875724  0.07774821     0.65100
H834        H  0.24385055  0.35223228  0.02618793     0.10500
C835        C  0.17264981  0.39666990  0.98421874     0.63500
H836        H  0.16855978  0.41605314  0.03537675     0.07900
F837        F  0.13645310  0.36361591  0.12362069    -0.19600
F838        F  0.13336175  0.39532922  0.15482197    -0.15800
F839        F  0.16610263  0.36414286  0.15712273    -0.19300
F840        F  0.20383690  0.45882231  0.05394996    -0.22700
F841        F  0.24147039  0.43654699  0.06458918    -0.24100
F842        F  0.22860865  0.47169066  0.08900004    -0.18100
F843        F  0.15382938  0.41608188  0.99012203    -0.20600
F844        F  0.15918121  0.37399331  0.97601353    -0.21800
F845        F  0.18840029  0.40589868  0.96347685    -0.19000
F846        F  0.25839740  0.35123353  0.07094330    -0.19100
F847        F  0.22139556  0.35591518  0.09562538    -0.22900
F848        F  0.24955093  0.39053386  0.09020689    -0.24500
C849        C  0.11244240  0.55249573  0.17440829    -0.11300
C850        C  0.10290073  0.56915542  0.19478704     0.11300
C851        C  0.10211857  0.55959839  0.22139534    -0.03100
C852        C  0.11341712  0.53446877  0.22709839    -0.05800
C853        C  0.12525675  0.51880101  0.20706352    -0.16600
C854        C  0.12368900  0.52731081  0.18008911     0.02300
C855        C  0.09605489  0.59732598  0.18821935     0.12300
C856        C  0.08991351  0.57619305  0.24367928     0.62900
H857        H  0.11428412  0.52743771  0.24753146     0.12300
C858        C  0.13361247  0.50984275  0.15740174     0.55000
H859        H  0.11216289  0.55995072  0.15410841     0.08100
C860        C  0.11598067  0.61739322  0.18781165    -0.05700
C861        C  0.10804452  0.64417232  0.18499691    -0.06500
C862        C  0.08098881  0.65149909  0.18216629    -0.16100
C863        C  0.06133468  0.63109993  0.18004661    -0.01600
C864        C  0.06926651  0.60424618  0.18339344    -0.09200
C865        C  0.14550563  0.61052734  0.19070269     0.65100
H866        H  0.12301927  0.65975955  0.18598637     0.10500
C867        C  0.03217548  0.63736645  0.17427175     0.63500
H868        H  0.05444734  0.58846702  0.18309090     0.07900
F869        F  0.16124654  0.50863092  0.15771240    -0.19600
F870        F  0.12571302  0.51967419  0.13278371    -0.15800
F871        F  0.12327456  0.48435787  0.16006494    -0.19300
F872        F  0.06326518  0.58112974  0.23805249    -0.22700
F873        F  0.10327984  0.60024105  0.24604533    -0.24100
F874        F  0.09124103  0.56324774  0.26807251    -0.18100
F875        F  0.01849210  0.61491615  0.16567293    -0.20600
F876        F  0.03022916  0.65644339  0.15436553    -0.21800
F877        F  0.01992805  0.64669598  0.19718615    -0.19000
F878        F  0.16151957  0.63307097  0.19013137    -0.19100
F879        F  0.15329129  0.59411849  0.16991812    -0.22900
F880        F  0.15000582  0.59752746  0.21464306    -0.24500
C881        C  0.35777846  0.36018812  0.20133926    -0.11300
C882        C  0.33168635  0.35956112  0.19090994     0.11300
C883        C  0.32449484  0.33949734  0.17231525    -0.03100
C884        C  0.34325996  0.31960602  0.16616750    -0.05800
C885        C  0.36877919  0.31901574  0.17795645    -0.16600
C886        C  0.37663205  0.34009088  0.19520033     0.02300
C887        C  0.31137032  0.37870077  0.20108702     0.12300
C888        C  0.29678130  0.33851370  0.15969604     0.62900
H889        H  0.33781426  0.30369388  0.15256275     0.12300
C890        C  0.40423670  0.34082800  0.20787364     0.55000
H891        H  0.36290764  0.37608165  0.21506649     0.08100
C892        C  0.29680746  0.37340195  0.22468024    -0.05700
C893        C  0.27357424  0.38837680  0.22984219    -0.06500
C894        C  0.26464009  0.40854734  0.21241106    -0.16100
C895        C  0.28105693  0.41569653  0.19027200    -0.01600
C896        C  0.30430429  0.40056090  0.18515072    -0.09200
C897        C  0.30552724  0.35160502  0.24393686     0.65100
H898        H  0.26158878  0.38370667  0.24718504     0.10500
C899        C  0.27359395  0.43806016  0.17117191     0.63500
H900        H  0.31634695  0.40456814  0.16762219     0.07900
F901        F  0.40881853  0.31748442  0.22192793    -0.19600
F902        F  0.40695012  0.36200714  0.22542333    -0.15800
F903        F  0.42345268  0.34359653  0.18821010    -0.19300
F904        F  0.29233801  0.36141221  0.14494118    -0.22700
F905        F  0.27746735  0.33649703  0.17935022    -0.24100
F906        F  0.29389363  0.31688504  0.14271141    -0.18100
F907        F  0.29220648  0.44100651  0.15091644    -0.20600
F908        F  0.27234838  0.46197773  0.18491082    -0.21800
F909        F  0.24909167  0.43272368  0.15946849    -0.19000
F910        F  0.28798346  0.34896754  0.26513012    -0.19100
F911        F  0.33047779  0.35777641  0.25418465    -0.22900
F912        F  0.30686025  0.32728592  0.23094048    -0.24500
C913        C  0.93015091  0.72476581  0.12840308    -0.11300
C914        C  0.93219019  0.70440620  0.10935131     0.11300
C915        C  0.95750095  0.69350398  0.10289105    -0.03100
C916        C  0.98022020  0.70290639  0.11665703    -0.05800
C917        C  0.97803983  0.72302629  0.13599488    -0.16600
C918        C  0.95277081  0.73433126  0.14193813     0.02300
C919        C  0.90698566  0.69464474  0.09735073     0.12300
C920        C  0.96022679  0.67193979  0.08182757     0.62900
H921        H  0.99981983  0.69461988  0.11251539     0.12300
C922        C  0.94975024  0.75598839  0.16294364     0.55000
H923        H  0.91050431  0.73278361  0.13287147     0.08100
C924        C  0.88918339  0.67784685  0.11148053    -0.05700
C925        C  0.86315280  0.67452269  0.10163109    -0.06500
C926        C  0.85441919  0.68685269  0.07795575    -0.16100
C927        C  0.87325524  0.70152090  0.06239981    -0.01600
C928        C  0.89908026  0.70565872  0.07289853    -0.09200
C929        C  0.89605520  0.66365442  0.13740344     0.65100
H930        H  0.84914788  0.66265878  0.11316931     0.10500
C931        C  0.86674342  0.71275107  0.03495824     0.63500
H932        H  0.91322965  0.71828544  0.06246657     0.07900
F933        F  0.92345418  0.76434372  0.16553892    -0.19600
F934        F  0.96503520  0.77788599  0.15595947    -0.15800
F935        F  0.95821804  0.74642227  0.18744143    -0.19300
F936        F  0.95228151  0.68188437  0.05731407    -0.22700
F937        F  0.94429680  0.65034348  0.08839060    -0.24100
F938        F  0.98637131  0.66306974  0.07952277    -0.18100
F939        F  0.88785941  0.72718681  0.02437938    -0.20600
F940        F  0.84487141  0.72953928  0.03596693    -0.21800
F941        F  0.86145727  0.69187955  0.01781831    -0.19000
F942        F  0.89082334  0.63667704  0.13458995    -0.19100
F943        F  0.88020400  0.67369725  0.15768300    -0.22900
F944        F  0.92256702  0.66633744  0.14480052    -0.24500
C945        C  0.62569104  0.75688695  0.94291935    -0.11300
C946        C  0.65342144  0.75901324  0.93938655     0.11300
C947        C  0.66377982  0.76986551  0.91544523    -0.03100
C948        C  0.64582600  0.77677850  0.89499718    -0.05800
C949        C  0.61817608  0.77223320  0.89748348    -0.16600
C950        C  0.60770774  0.76364338  0.92240301     0.02300
C951        C  0.67112303  0.74607354  0.95924083     0.12300
C952        C  0.69374749  0.77245150  0.91080631     0.62900
H953        H  0.65360483  0.78346795  0.87595974     0.12300
C954        C  0.57789996  0.76024710  0.92721217     0.55000
H955        H  0.61823207  0.74830147  0.96132864     0.08100
C956        C  0.67837424  0.75829999  0.98364155    -0.05700
C957        C  0.69597570  0.74462260  0.00082899    -0.06500
C958        C  0.70606279  0.71928432  0.99427458    -0.16100
C959        C  0.69889176  0.70720680  0.96966654    -0.01600
C960        C  0.68093882  0.72067374  0.95287490    -0.09200
C961        C  0.66736923  0.78542591  0.99149728     0.65100
H962        H  0.70171376  0.75342248  0.01974759     0.10500
C963        C  0.71115899  0.68098824  0.96038499     0.63500
H964        H  0.67474297  0.71170763  0.93417225     0.07900
F965        F  0.56375599  0.78085245  0.91535467    -0.19600
F966        F  0.57205530  0.76054686  0.95423310    -0.15800
F967        F  0.56943053  0.73610999  0.91681244    -0.19300
F968        F  0.70521247  0.74741565  0.90880948    -0.22700
F969        F  0.70549588  0.78605451  0.93176612    -0.24100
F970        F  0.69935132  0.78624520  0.88752119    -0.18100
F971        F  0.70260847  0.66024213  0.97643167    -0.20600
F972        F  0.73877656  0.68270134  0.96143408    -0.21800
F973        F  0.70404481  0.67495058  0.93434254    -0.19000
F974        F  0.67825483  0.79438007  0.01529958    -0.19100
F975        F  0.63992796  0.78382832  0.99459772    -0.22900
F976        F  0.67313888  0.80401779  0.97193800    -0.24500
C977        C  0.04529384  0.28735514  0.89022816    -0.11300
C978        C  0.05019308  0.31491431  0.88998001     0.11300
C979        C  0.03053157  0.33253122  0.87972754    -0.03100
C980        C  0.00733078  0.32161968  0.86818303    -0.05800
C981        C  0.00296244  0.29394486  0.86737295    -0.16600
C982        C  0.02155433  0.27648956  0.87983004     0.02300
C983        C  0.07747322  0.32397121  0.89742061     0.12300
C984        C  0.03416667  0.36262439  0.88049554     0.62900
H985        H  0.99272617  0.33464234  0.85888593     0.12300
C986        C  0.01699668  0.24651948  0.88137134     0.55000
H987        H  0.06078905  0.27427281  0.89783395     0.08100
C988        C  0.08748071  0.32219074  0.92376429    -0.05700
C989        C  0.11510261  0.32577102  0.92797213    -0.06500
C990        C  0.13277423  0.33169210  0.90683377    -0.16100
C991        C  0.12186035  0.33688161  0.88102249    -0.01600
C992        C  0.09455595  0.33173289  0.87670622    -0.09200
C993        C  0.06923922  0.31590448  0.94719324     0.65100
H994        H  0.12322827  0.32282574  0.94780426     0.10500
C995        C  0.13842809  0.34737634  0.85779226     0.63500
H996        H  0.08641545  0.33272128  0.85668719     0.07900
F997        F  0.03837677  0.23338195  0.89311954    -0.19600
F998        F  0.01349750  0.23610941  0.85603149    -0.15800
F999        F  0.99451452  0.24137185  0.89662936    -0.19300
F1000       F  0.05401679  0.37028562  0.86292055    -0.22700
F1001       F  0.04113424  0.37059055  0.90599756    -0.24100
F1002       F  0.01087126  0.37588260  0.87346248    -0.18100
F1003       F  0.15731281  0.32873332  0.85016340    -0.20600
F1004       F  0.15099828  0.37084277  0.86520872    -0.21800
F1005       F  0.12275453  0.35300392  0.83566697    -0.19000
F1006       F  0.08213135  0.31965086  0.97138833    -0.19100
F1007       F  0.06082675  0.28966671  0.94594818    -0.22900
F1008       F  0.04710575  0.33248408  0.94665456    -0.24500
C1009       C  0.86090352  0.14790338  0.79699615    -0.11300
C1010       C  0.83429881  0.14999114  0.80552273     0.11300
C1011       C  0.82607384  0.17208564  0.82107029    -0.03100
C1012       C  0.84462613  0.19245083  0.82609574    -0.05800
C1013       C  0.87081009  0.19147610  0.81591974    -0.16600
C1014       C  0.87943421  0.16854432  0.80164856     0.02300
C1015       C  0.81449641  0.13064798  0.79527346     0.12300
C1016       C  0.79755588  0.17456851  0.83146499     0.62900
H1017       H  0.83855059  0.20981948  0.83747287     0.12300
C1018       C  0.90732971  0.16655097  0.78987260     0.55000
H1019       H  0.86658031  0.13054680  0.78540767     0.08100
C1020       C  0.80179962  0.13491467  0.77042037    -0.05700
C1021       C  0.77904220  0.11978554  0.76424171    -0.06500
C1022       C  0.76901417  0.10054060  0.78191628    -0.16100
C1023       C  0.78342172  0.09435788  0.80554879    -0.01600
C1024       C  0.80621707  0.10965875  0.81181628    -0.09200
C1025       C  0.81161453  0.15614745  0.75106333     0.65100
H1026       H  0.76814187  0.12376667  0.74621052     0.10500
C1027       C  0.77398071  0.07291116  0.82477520     0.63500
H1028       H  0.81680133  0.10649228  0.83040110     0.07900
F1029       F  0.91201021  0.18837077  0.77361074    -0.19600
F1030       F  0.91051303  0.14371969  0.77461600    -0.15800
F1031       F  0.92614128  0.16582525  0.81012922    -0.19300
F1032       F  0.79161373  0.15305824  0.84769882    -0.22700
F1033       F  0.77969847  0.17516538  0.81035942    -0.24100
F1034       F  0.79393342  0.19761618  0.84629165    -0.18100
F1035       F  0.79046997  0.07094390  0.84692910    -0.20600
F1036       F  0.77396041  0.04841789  0.81204081    -0.21800
F1037       F  0.74839439  0.07871253  0.83356650    -0.19000
F1038       F  0.79634745  0.15694586  0.72805134    -0.19100
F1039       F  0.83773635  0.15074465  0.74376005    -0.22900
F1040       F  0.81047297  0.18107434  0.76285470    -0.24500
C1041       C  0.84046839  0.27901302  0.93006232    -0.11300
C1042       C  0.84096539  0.25422921  0.94298311     0.11300
C1043       C  0.86112740  0.23545998  0.93665871    -0.03100
C1044       C  0.87911457  0.24144399  0.91600917    -0.05800
C1045       C  0.87705904  0.26512164  0.90097882    -0.16600
C1046       C  0.85840392  0.28503356  0.90920872     0.02300
C1047       C  0.81825318  0.24674502  0.96041104     0.12300
C1048       C  0.86255918  0.20844436  0.95050777     0.62900
H1049       H  0.89357133  0.22647816  0.91009687     0.12300
C1050       C  0.85654401  0.31220440  0.89583221     0.55000
H1051       H  0.82487488  0.29306228  0.93541049     0.08100
C1052       C  0.81779528  0.25239610  0.98807189    -0.05700
C1053       C  0.79773762  0.24050578  0.00379566    -0.06500
C1054       C  0.77846916  0.22357201  0.99249600    -0.16100
C1055       C  0.77766888  0.21973325  0.96456676    -0.01600
C1056       C  0.79763679  0.23162255  0.94886167    -0.09200
C1057       C  0.83813887  0.27101955  0.00072905     0.65100
H1058       H  0.79701091  0.24417838  0.02503927     0.10500
C1059       C  0.75609025  0.20276732  0.95162414     0.63500
H1060       H  0.79809965  0.22818522  0.92751382     0.07900
F1061       F  0.84240890  0.33020961  0.91136363    -0.19600
F1062       F  0.84348733  0.30992625  0.87157536    -0.15800
F1063       F  0.88190742  0.32258291  0.89190200    -0.19300
F1064       F  0.84027945  0.19341951  0.94404145    -0.22700
F1065       F  0.86351385  0.21180045  0.97787798    -0.24100
F1066       F  0.88505145  0.19416056  0.94299409    -0.18100
F1067       F  0.73115417  0.21314932  0.95763225    -0.20600
F1068       F  0.75766207  0.17689781  0.96111153    -0.21800
F1069       F  0.75865811  0.20203936  0.92410279    -0.19000
F1070       F  0.83495344  0.27255914  0.02815190    -0.19100
F1071       F  0.83503036  0.29636002  0.99023495    -0.22900
F1072       F  0.86387163  0.26226921  0.99563446    -0.24500
C1073       C  0.80465737  0.57823477  0.89853946    -0.11300
C1074       C  0.79485619  0.60342363  0.90573072     0.11300
C1075       C  0.79061900  0.62321643  0.88607733    -0.03100
C1076       C  0.79422177  0.61625076  0.85929879    -0.05800
C1077       C  0.80292597  0.59065055  0.85165920    -0.16600
C1078       C  0.80922103  0.57150378  0.87163565     0.02300
C1079       C  0.78998953  0.60926804  0.93411738     0.12300
C1080       C  0.78265489  0.65167664  0.89334989     0.62900
H1081       H  0.78977880  0.63086199  0.84399107     0.12300
C1082       C  0.82146053  0.54457844  0.86491493     0.55000
H1083       H  0.80854635  0.56385555  0.91423075     0.08100
C1084       C  0.76445596  0.60594049  0.94577527    -0.05700
C1085       C  0.75972560  0.61740471  0.97092567    -0.06500
C1086       C  0.77963749  0.63220097  0.98410004    -0.16100
C1087       C  0.80586802  0.63321989  0.97337245    -0.01600
C1088       C  0.81066017  0.62134598  0.94851213    -0.09200
C1089       C  0.74231080  0.59093929  0.93135361     0.65100
H1090       H  0.73995125  0.61630586  0.97970556     0.10500
C1091       C  0.82844195  0.64781829  0.98730201     0.63500
H1092       H  0.83012053  0.62318940  0.93914294     0.07900
F1093       F  0.80258318  0.52838043  0.85288574    -0.19600
F1094       F  0.83068992  0.53158600  0.88753305    -0.15800
F1095       F  0.84297851  0.54804732  0.84788572    -0.19300
F1096       F  0.80241700  0.66312230  0.90892166    -0.22700
F1097       F  0.75885940  0.65179773  0.90738450    -0.24100
F1098       F  0.77928226  0.66753933  0.87095041    -0.18100
F1099       F  0.85310684  0.64152642  0.97638113    -0.20600
F1100       F  0.82908389  0.64096457  0.01406256    -0.21800
F1101       F  0.82458802  0.67500694  0.98465849    -0.19000
F1102       F  0.71902338  0.58999859  0.94628949    -0.19100
F1103       F  0.75050847  0.56503002  0.92649214    -0.22900
F1104       F  0.73643484  0.60314242  0.90729076    -0.24500
C1105       C  0.88626072  0.45556735  0.77131715    -0.11300
C1106       C  0.88111489  0.44616692  0.79714191     0.11300
C1107       C  0.86718654  0.46256596  0.81542865    -0.03100
C1108       C  0.85651045  0.48695718  0.80628434    -0.05800
C1109       C  0.85955837  0.49540724  0.77963300    -0.16600
C1110       C  0.87540722  0.47976960  0.76195302     0.02300
C1111       C  0.88788112  0.41785102  0.80308018     0.12300
C1112       C  0.86315959  0.45399338  0.84422326     0.62900
H1113       H  0.84480195  0.49922093  0.81970830     0.12300
C1114       C  0.87950233  0.48741590  0.73286650     0.55000
H1115       H  0.89751333  0.44278307  0.75797645     0.08100
C1116       C  0.87101396  0.39691723  0.79430164    -0.05700
C1117       C  0.87921334  0.37044337  0.79841742    -0.06500
C1118       C  0.90382984  0.36404580  0.81052080    -0.16100
C1119       C  0.92046937  0.38505434  0.81992119    -0.01600
C1120       C  0.91213045  0.41174465  0.81592733    -0.09200
C1121       C  0.84474087  0.40246142  0.77987714     0.65100
H1122       H  0.86674188  0.35436615  0.79107148     0.10500
C1123       C  0.94667288  0.37952317  0.83425740     0.63500
H1124       H  0.92479699  0.42811795  0.82220901     0.07900
F1125       F  0.85496675  0.49029392  0.72034978    -0.19600
F1126       F  0.89386198  0.46824913  0.71902356    -0.15800
F1127       F  0.89360564  0.51110936  0.73132887    -0.19300
F1128       F  0.88777705  0.45007230  0.85623904    -0.22700
F1129       F  0.84876708  0.43045226  0.84520158    -0.24100
F1130       F  0.84941715  0.47305936  0.85881213    -0.18100
F1131       F  0.96531084  0.36972513  0.81637381    -0.20600
F1132       F  0.94264252  0.36105249  0.85439977    -0.21800
F1133       F  0.95712067  0.40241352  0.84573025    -0.19000
F1134       F  0.83052608  0.37926328  0.77491432    -0.19100
F1135       F  0.84975110  0.41463559  0.75563006    -0.22900
F1136       F  0.82873915  0.41898582  0.79515229    -0.24500
C1137       C  0.66716165  0.67866494  0.80455632    -0.11300
C1138       C  0.65623369  0.65840428  0.78868979     0.11300
C1139       C  0.62829746  0.65749058  0.78424957    -0.03100
C1140       C  0.61249951  0.67889992  0.79352871    -0.05800
C1141       C  0.62377184  0.70011455  0.80813738    -0.16600
C1142       C  0.65135217  0.69927021  0.81500420     0.02300
C1143       C  0.67513466  0.63779900  0.77900038     0.12300
C1144       C  0.61528794  0.63373771  0.77063688     0.62900
H1145       H  0.59123697  0.67930577  0.78931543     0.12300
C1146       C  0.66397901  0.71908479  0.83430538     0.55000
H1147       H  0.68844886  0.67812037  0.80872488     0.08100
C1148       C  0.69196293  0.64257925  0.75678237    -0.05700
C1149       C  0.71466475  0.62635812  0.75335274    -0.06500
C1150       C  0.72154128  0.60643660  0.77192911    -0.16100
C1151       C  0.70369609  0.60061261  0.79322610    -0.01600
C1152       C  0.68051690  0.61632855  0.79610922    -0.09200
C1153       C  0.68697242  0.66577070  0.73778822     0.65100
H1154       H  0.72834611  0.63037270  0.73707669     0.10500
C1155       C  0.70996059  0.57950329  0.81410520     0.63500
H1156       H  0.66748737  0.61345662  0.81313588     0.07900
F1157       F  0.66645758  0.74384139  0.82238985    -0.19600
F1158       F  0.68927929  0.71101645  0.84227810    -0.15800
F1159       F  0.64831772  0.72124588  0.85697752    -0.19300
F1160       F  0.61977272  0.61100319  0.78564872    -0.22700
F1161       F  0.62595206  0.63007194  0.74547589    -0.24100
F1162       F  0.58789312  0.63707303  0.76800062    -0.18100
F1163       F  0.69052519  0.57834324  0.83377117    -0.20600
F1164       F  0.73413388  0.58520690  0.82634526    -0.21800
F1165       F  0.71129453  0.55467222  0.80213223    -0.19000
F1166       F  0.70515520  0.66606756  0.71693141    -0.19100
F1167       F  0.68918276  0.68971739  0.75131685    -0.22900
F1168       F  0.66161425  0.66389363  0.72695085    -0.24500
C1169       C  0.13651688  0.71444866  0.36155181    -0.11300
C1170       C  0.13713456  0.70490142  0.33526183     0.11300
C1171       C  0.15787324  0.68745861  0.32698219    -0.03100
C1172       C  0.17829563  0.68126238  0.34515431    -0.05800
C1173       C  0.17848578  0.69187684  0.37100779    -0.16600
C1174       C  0.15697832  0.70801382  0.37980460     0.02300
C1175       C  0.11817967  0.71599404  0.31553493     0.12300
C1176       C  0.15903305  0.67629865  0.29873461     0.62900
H1177       H  0.19489040  0.66874542  0.33903335     0.12300
C1178       C  0.15661636  0.71960128  0.40772171     0.55000
H1179       H  0.12049219  0.72784429  0.36726353     0.08100
C1180       C  0.09361267  0.70348579  0.30940623    -0.05700
C1181       C  0.08095111  0.71007683  0.28517534    -0.06500
C1182       C  0.09205796  0.72911995  0.26778550    -0.16100
C1183       C  0.11419855  0.74461789  0.27632218    -0.01600
C1184       C  0.12709602  0.73755209  0.30015126    -0.09200
C1185       C  0.08121892  0.68327099  0.32826726     0.65100
H1186       H  0.06320160  0.69932054  0.27895965     0.10500
C1187       C  0.12498528  0.76780370  0.26005448     0.63500
H1188       H  0.14550340  0.74750034  0.30586222     0.07900
F1189       F  0.15576615  0.69920727  0.42631826    -0.19600
F1190       F  0.13458353  0.73584534  0.41181792    -0.15800
F1191       F  0.17946597  0.73467288  0.41164918    -0.19300
F1192       F  0.16269159  0.69679530  0.28063064    -0.22700
F1193       F  0.13549650  0.66309570  0.29275571    -0.24100
F1194       F  0.17988625  0.65835467  0.29561397    -0.18100
F1195       F  0.14050756  0.78461128  0.27563083    -0.20600
F1196       F  0.10409841  0.78275022  0.24971732    -0.21800
F1197       F  0.14065731  0.75827903  0.23941117    -0.19000
F1198       F  0.05721515  0.67348073  0.31850502    -0.19100
F1199       F  0.07628303  0.69537235  0.35258841    -0.22900
F1200       F  0.09835418  0.66195350  0.33218698    -0.24500
C1201       C  0.22559836  0.54931665  0.30164741    -0.11300
C1202       C  0.23192632  0.53851232  0.32676098     0.11300
C1203       C  0.22801587  0.51089005  0.33151622    -0.03100
C1204       C  0.21756178  0.49507881  0.31081624    -0.05800
C1205       C  0.21111498  0.50598037  0.28582471    -0.16600
C1206       C  0.21508378  0.53347448  0.28101296     0.02300
C1207       C  0.23834659  0.55777680  0.34823082     0.12300
C1208       C  0.23381845  0.49716246  0.35793768     0.62900
H1209       H  0.21396021  0.47401567  0.31433860     0.12300
C1210       C  0.20668525  0.54618600  0.25477682     0.55000
H1211       H  0.22794173  0.57061920  0.29873836     0.08100
C1212       C  0.26358307  0.57032971  0.35021301    -0.05700
C1213       C  0.26642621  0.59210732  0.36772750    -0.06500
C1214       C  0.24495502  0.60114441  0.38345546    -0.16100
C1215       C  0.22027596  0.58701663  0.38295089    -0.01600
C1216       C  0.21747000  0.56552860  0.36515039    -0.09200
C1217       C  0.28717869  0.56071272  0.33377142     0.65100
H1218       H  0.28518184  0.60294335  0.36851523     0.10500
C1219       C  0.19635327  0.59551875  0.39965336     0.63500
H1220       H  0.19845976  0.55527712  0.36331184     0.07900
F1221       F  0.22097522  0.53497785  0.23397892    -0.19600
F1222       F  0.21125757  0.57344087  0.25458509    -0.15800
F1223       F  0.17962466  0.54199629  0.25059476    -0.19300
F1224       F  0.21009729  0.48772420  0.36857797    -0.22700
F1225       F  0.24578461  0.51369461  0.37652744    -0.24100
F1226       F  0.25080411  0.47578234  0.35359573    -0.18100
F1227       F  0.17426482  0.57941708  0.39523771    -0.20600
F1228       F  0.18922011  0.62142756  0.39332674    -0.21800
F1229       F  0.20268531  0.59389361  0.42648730    -0.19000
F1230       F  0.31041660  0.57440815  0.34003057    -0.19100
F1231       F  0.28203834  0.56428229  0.30688578    -0.22900
F1232       F  0.29149196  0.53387456  0.33868150    -0.24500
C1233       C  0.29481422  0.81681864  0.38703104    -0.11300
C1234       C  0.27769810  0.82254634  0.36560604     0.11300
C1235       C  0.25687956  0.80459871  0.35885416    -0.03100
C1236       C  0.25459921  0.78073428  0.37333886    -0.05800
C1237       C  0.27288487  0.77406632  0.39355522    -0.16600
C1238       C  0.29296487  0.79260383  0.40112233     0.02300
C1239       C  0.28605926  0.84361832  0.34679509     0.12300
C1240       C  0.23850700  0.80958737  0.33511988     0.62900
H1241       H  0.23943936  0.76625666  0.36788489     0.12300
C1242       C  0.31351118  0.78613101  0.42254917     0.55000
H1243       H  0.31088284  0.83068646  0.39131950     0.08100
C1244       C  0.27854902  0.87074545  0.34924236    -0.05700
C1245       C  0.28562031  0.88848481  0.32855208    -0.06500
C1246       C  0.30035390  0.87963641  0.30640797    -0.16100
C1247       C  0.30975852  0.85297638  0.30533409    -0.01600
C1248       C  0.30235621  0.83540243  0.32566807    -0.09200
C1249       C  0.26355264  0.88074801  0.37358842     0.65100
H1250       H  0.27920156  0.90912433  0.32916950     0.10500
C1251       C  0.32783581  0.84314572  0.28299150     0.63500
H1252       H  0.30861140  0.81469066  0.32490456     0.07900
F1253       F  0.33261747  0.80600517  0.42497232    -0.19600
F1254       F  0.32659120  0.76259359  0.41629249    -0.15800
F1255       F  0.30090185  0.78345589  0.44696015    -0.19300
F1256       F  0.25293213  0.80785135  0.31164577    -0.22700
F1257       F  0.22716511  0.83467874  0.33685393    -0.24100
F1258       F  0.21791377  0.79112939  0.33395148    -0.18100
F1259       F  0.34991914  0.85961872  0.28109829    -0.20600
F1260       F  0.31416209  0.84316988  0.25898865    -0.21800
F1261       F  0.33693016  0.81742492  0.28755198    -0.19000
F1262       F  0.25819834  0.90782256  0.37192079    -0.19100
F1263       F  0.27883411  0.87634544  0.39619523    -0.22900
F1264       F  0.23950087  0.86741721  0.37622959    -0.24500
C1265       C  0.43954821  0.72683990  0.37982461    -0.11300
C1266       C  0.43323937  0.69958515  0.38062288     0.11300
C1267       C  0.45166184  0.68069223  0.37038989    -0.03100
C1268       C  0.47592686  0.68993277  0.35949514    -0.05800
C1269       C  0.48191135  0.71729499  0.35791922    -0.16600
C1270       C  0.46353458  0.73618379  0.36851419     0.02300
C1271       C  0.40549375  0.69234850  0.38852242     0.12300
C1272       C  0.44529154  0.65105577  0.36995330     0.62900
H1273       H  0.48999399  0.67586236  0.35096201     0.12300
C1274       C  0.46820462  0.76611980  0.36640313     0.55000
H1275       H  0.42478072  0.74088956  0.38714200     0.08100
C1276       C  0.39686436  0.69203468  0.41540378    -0.05700
C1277       C  0.36930079  0.68923396  0.42075984    -0.06500
C1278       C  0.35015890  0.68711753  0.40016716    -0.16100
C1279       C  0.35918291  0.68662314  0.37311962    -0.01600
C1280       C  0.38672507  0.68938365  0.36798945    -0.09200
C1281       C  0.41663491  0.69515460  0.43825945     0.65100
H1282       H  0.36239778  0.68943541  0.44124614     0.10500
C1283       C  0.34016815  0.68444031  0.34943559     0.63500
H1284       H  0.39393809  0.69026267  0.34761582     0.07900
F1285       F  0.44659819  0.78067918  0.37578062    -0.19600
F1286       F  0.47221790  0.77317887  0.34002083    -0.15800
F1287       F  0.49037803  0.77322848  0.38132764    -0.19300
F1288       F  0.42361572  0.64633881  0.35345917    -0.22700
F1289       F  0.43928654  0.64230971  0.39540382    -0.24100
F1290       F  0.46664393  0.63610359  0.36060884    -0.18100
F1291       F  0.32167963  0.70500403  0.35014484    -0.20600
F1292       F  0.32711339  0.66010239  0.35010674    -0.21800
F1293       F  0.35347498  0.68603687  0.32523770    -0.19000
F1294       F  0.40415912  0.69361031  0.46288174    -0.19100
F1295       F  0.42926699  0.71963633  0.43663358    -0.22900
F1296       F  0.43567707  0.67518430  0.43705495    -0.24500
C1297       C  0.59904079  0.69133575  0.17934066    -0.11300
C1298       C  0.62251669  0.70560229  0.17380875     0.11300
C1299       C  0.62977354  0.72759049  0.19000766    -0.03100
C1300       C  0.61390220  0.73360620  0.21229053    -0.05800
C1301       C  0.59186948  0.71774048  0.21951265    -0.16600
C1302       C  0.58382276  0.69651519  0.20245105     0.02300
C1303       C  0.64091342  0.69548772  0.15291130     0.12300
C1304       C  0.65499562  0.74373976  0.18463531     0.62900
H1305       H  0.61958504  0.74992672  0.22529714     0.12300
C1306       C  0.56061783  0.67819348  0.20940547     0.55000
H1307       H  0.59377237  0.67494046  0.16626802     0.08100
C1308       C  0.65889902  0.67427645  0.15829593    -0.05700
C1309       C  0.67950702  0.66915078  0.13997538    -0.06500
C1310       C  0.68234678  0.68422559  0.11655122    -0.16100
C1311       C  0.66327615  0.70425617  0.11028884    -0.01600
C1312       C  0.64256275  0.70934715  0.12864311    -0.09200
C1313       C  0.65674473  0.65757345  0.18356839     0.65100
H1314       H  0.69400168  0.65356693  0.14403629     0.10500
C1315       C  0.66564894  0.72118853  0.08523359     0.63500
H1316       H  0.62821270  0.72511581  0.12486081     0.07900
F1317       F  0.56510294  0.66635083  0.23397661    -0.19600
F1318       F  0.55740711  0.65801852  0.19078237    -0.15800
F1319       F  0.53708209  0.69270979  0.21022796    -0.19300
F1320       F  0.65308552  0.75614916  0.16006340    -0.22700
F1321       F  0.67713690  0.72714743  0.18478667    -0.24100
F1322       F  0.65901945  0.76332842  0.20372123    -0.18100
F1323       F  0.66233799  0.70535332  0.06286719    -0.20600
F1324       F  0.69057223  0.73320156  0.08438153    -0.21800
F1325       F  0.64645662  0.74112540  0.08439874    -0.19000
F1326       F  0.67697216  0.63873963  0.18527746    -0.19100
F1327       F  0.63257541  0.64414981  0.18379101    -0.22900
F1328       F  0.65835077  0.67377871  0.20586064    -0.24500
C1329       C  0.47654214  0.83266450  0.24905534    -0.11300
C1330       C  0.44968325  0.82828199  0.25601031     0.11300
C1331       C  0.44248280  0.80460444  0.26976825    -0.03100
C1332       C  0.46275183  0.78639679  0.27682850    -0.05800
C1333       C  0.48972545  0.79144312  0.27108052    -0.16600
C1334       C  0.49687911  0.81474520  0.25681184     0.02300
C1335       C  0.42952094  0.84912345  0.24932401     0.12300
C1336       C  0.41360550  0.79883854  0.27739186     0.62900
H1337       H  0.45781677  0.76842966  0.28781386     0.12300
C1338       C  0.52589403  0.82068909  0.25024602     0.55000
H1339       H  0.48152803  0.85073817  0.23827729     0.08100
C1340       C  0.42502371  0.87139633  0.26611135    -0.05700
C1341       C  0.40366228  0.88875803  0.26012521    -0.06500
C1342       C  0.38679005  0.88458927  0.23796622    -0.16100
C1343       C  0.39274213  0.86336231  0.22006038    -0.01600
C1344       C  0.41408670  0.84596655  0.22616258    -0.09200
C1345       C  0.44252468  0.87656012  0.29042808     0.65100
H1346       H  0.39923716  0.90511436  0.27354008     0.10500
C1347       C  0.37680135  0.85882401  0.19464162     0.63500
H1348       H  0.41832931  0.82908315  0.21333173     0.07900
F1349       F  0.52844904  0.84335775  0.23463155    -0.19600
F1350       F  0.53688935  0.79943081  0.23644757    -0.15800
F1351       F  0.54013215  0.82465214  0.27358910    -0.19300
F1352       F  0.39817754  0.79646763  0.25460075    -0.22700
F1353       F  0.40355131  0.81931822  0.29293062    -0.24100
F1354       F  0.41128380  0.77535275  0.29179957    -0.18100
F1355       F  0.37299931  0.88279539  0.18143268    -0.20600
F1356       F  0.35225731  0.84765277  0.20073439    -0.21800
F1357       F  0.38996213  0.84168169  0.17737964    -0.19000
F1358       F  0.43404739  0.89867865  0.30468238    -0.19100
F1359       F  0.46859382  0.88104321  0.28237227    -0.22900
F1360       F  0.44202290  0.85480788  0.30741061    -0.24500
C1361       C  0.51032226  0.17908824  0.73925568    -0.11300
C1362       C  0.53566293  0.17752874  0.72719526     0.11300
C1363       C  0.54245727  0.19593217  0.70674679    -0.03100
C1364       C  0.52348442  0.21522550  0.69893321    -0.05800
C1365       C  0.49812111  0.21666906  0.71080655    -0.16600
C1366       C  0.49134952  0.19849151  0.73136274     0.02300
C1367       C  0.55482631  0.15630088  0.73583659     0.12300
C1368       C  0.56945535  0.19481584  0.69280368     0.62900
H1369       H  0.52808108  0.22906632  0.68296136     0.12300
C1370       C  0.46391983  0.19928311  0.74423253     0.55000
H1371       H  0.50543009  0.16476396  0.75468606     0.08100
C1372       C  0.57232375  0.15985790  0.75772377    -0.05700
C1373       C  0.59348650  0.14158951  0.76138851    -0.06500
C1374       C  0.59736399  0.11948190  0.74433231    -0.16100
C1375       C  0.57762680  0.11429886  0.72433000    -0.01600
C1376       C  0.55686062  0.13306543  0.72039910    -0.09200
C1377       C  0.56865298  0.18297472  0.77698637     0.65100
H1378       H  0.60767747  0.14494274  0.77738760     0.10500
C1379       C  0.57854349  0.08977055  0.70648547     0.63500
H1380       H  0.54257908  0.13041212  0.70433207     0.07900
F1381       F  0.46026897  0.22363550  0.75671710    -0.19600
F1382       F  0.46081718  0.17933115  0.76310429    -0.15800
F1383       F  0.44441906  0.19597397  0.72489966    -0.19300
F1384       F  0.57165275  0.17120635  0.67868876    -0.22700
F1385       F  0.58990798  0.19619030  0.71137053    -0.24100
F1386       F  0.57272665  0.21574051  0.67503293    -0.18100
F1387       F  0.57828802  0.06694241  0.72204343    -0.20600
F1388       F  0.60138431  0.09025600  0.69090057    -0.21800
F1389       F  0.55670022  0.08848207  0.68948636    -0.19000
F1390       F  0.58848747  0.18355774  0.79630320    -0.19100
F1391       F  0.54424968  0.18044531  0.78974202    -0.22900
F1392       F  0.56925235  0.20698698  0.76338568    -0.24500
C1393       C  0.34592075  0.29872274  0.85643953    -0.11300
C1394       C  0.34143764  0.30002029  0.82884247     0.11300
C1395       C  0.31568040  0.30654370  0.81899204    -0.03100
C1396       C  0.29530420  0.31244927  0.83732934    -0.05800
C1397       C  0.29975002  0.31183771  0.86501534    -0.16600
C1398       C  0.32542170  0.30454476  0.87489038     0.02300
C1399       C  0.36377584  0.29410580  0.81031064     0.12300
C1400       C  0.30969484  0.30711583  0.78919311     0.62900
H1401       H  0.27561848  0.31792608  0.83009524     0.12300
C1402       C  0.33107705  0.30218217  0.90459794     0.55000
H1403       H  0.36572774  0.29328313  0.86336596     0.08100
C1404       C  0.38094771  0.31439781  0.80072138    -0.05700
C1405       C  0.39712155  0.30887561  0.77840145    -0.06500
C1406       C  0.39669802  0.28372756  0.76600470    -0.16100
C1407       C  0.38244327  0.26247928  0.77816540    -0.01600
C1408       C  0.36593653  0.26816762  0.80009964    -0.09200
C1409       C  0.38148474  0.34185780  0.81355344     0.65100
H1410       H  0.40863088  0.32475351  0.76925404     0.10500
C1411       C  0.38385522  0.23366637  0.76891715     0.63500
H1412       H  0.35357918  0.25247908  0.80850615     0.07900
F1413       F  0.33077366  0.32720789  0.91622789    -0.19600
F1414       F  0.35588011  0.29083823  0.90951318    -0.15800
F1415       F  0.31191093  0.28623293  0.91652895    -0.19300
F1416       F  0.31370160  0.28203979  0.77839521    -0.22700
F1417       F  0.32630897  0.32514821  0.77650274    -0.24100
F1418       F  0.28349769  0.31452910  0.78399836    -0.18100
F1419       F  0.39217495  0.21784429  0.79000136    -0.20600
F1420       F  0.40162595  0.22985862  0.74815828    -0.21800
F1421       F  0.35873610  0.22532264  0.76082106    -0.19000
F1422       F  0.39975705  0.35859027  0.80125035    -0.19100
F1423       F  0.38868774  0.33942747  0.84010604    -0.22900
F1424       F  0.35652294  0.35368106  0.81199992    -0.24500
C1425       C  0.41374211  0.41243954  0.67857395    -0.11300
C1426       C  0.38936333  0.41887650  0.69091016     0.11300
C1427       C  0.37239659  0.39818572  0.69998555    -0.03100
C1428       C  0.38109778  0.37161699  0.69752521    -0.05800
C1429       C  0.40595318  0.36490943  0.68601315    -0.16600
C1430       C  0.42243677  0.38570986  0.67590017     0.02300
C1431       C  0.38214630  0.44743849  0.69492609     0.12300
C1432       C  0.34514527  0.40417355  0.71220491     0.62900
H1433       H  0.36849067  0.35573584  0.70505135     0.12300
C1434       C  0.44877636  0.37991724  0.66197699     0.55000
H1435       H  0.42615373  0.42867415  0.67147102     0.08100
C1436       C  0.39007154  0.46151764  0.71807384    -0.05700
C1437       C  0.37864720  0.48670816  0.72313595    -0.06500
C1438       C  0.35998276  0.49844435  0.70556960    -0.16100
C1439       C  0.35453902  0.48547036  0.68080201    -0.01600
C1440       C  0.36556478  0.45996096  0.67614127    -0.09200
C1441       C  0.41025971  0.44970627  0.73747782     0.65100
H1442       H  0.38343372  0.49687375  0.74159847     0.10500
C1443       C  0.33733454  0.49814145  0.65918410     0.63500
H1444       H  0.36041826  0.44904113  0.65818829     0.07900
F1445       F  0.45949456  0.40262055  0.65040382    -0.19600
F1446       F  0.44487492  0.36125249  0.64198342    -0.15800
F1447       F  0.46716992  0.37025327  0.68022021    -0.19300
F1448       F  0.32911794  0.41686706  0.69360245    -0.22700
F1449       F  0.34797094  0.42049496  0.73427838    -0.24100
F1450       F  0.33211366  0.38116359  0.72029474    -0.18100
F1451       F  0.34018152  0.48509968  0.63497155    -0.20600
F1452       F  0.34485699  0.52445987  0.65542413    -0.21800
F1453       F  0.31062002  0.49699036  0.66628866    -0.19000
F1454       F  0.41518565  0.46657691  0.75881172    -0.19100
F1455       F  0.43421956  0.44533046  0.72439282    -0.22900
F1456       F  0.40096745  0.42573184  0.74750965    -0.24500
C1457       C  0.30544105  0.63379538  0.60187052    -0.11300
C1458       C  0.30258425  0.61273279  0.58385178     0.11300
C1459       C  0.30516875  0.58615032  0.59281692    -0.03100
C1460       C  0.30846149  0.58148066  0.62035622    -0.05800
C1461       C  0.30886845  0.60253384  0.63906984    -0.16600
C1462       C  0.30786572  0.62945056  0.62947138     0.02300
C1463       C  0.29405022  0.61964844  0.55635585     0.12300
C1464       C  0.30391875  0.56295114  0.57337120     0.62900
H1465       H  0.30984683  0.56113886  0.62751471     0.12300
C1466       C  0.30775667  0.65380972  0.64773964     0.55000
H1467       H  0.30395316  0.65390946  0.59405409     0.08100
C1468       C  0.26703631  0.62618266  0.55080996    -0.05700
C1469       C  0.26052904  0.63615474  0.52545637    -0.06500
C1470       C  0.28024512  0.64118081  0.50612587    -0.16100
C1471       C  0.30703261  0.63308212  0.51110534    -0.01600
C1472       C  0.31350370  0.62246803  0.53637876    -0.09200
C1473       C  0.24538961  0.62424448  0.57209528     0.65100
H1474       H  0.24006055  0.64184491  0.52121372     0.10500
C1475       C  0.32866850  0.63540923  0.48997253     0.63500
H1476       H  0.33404117  0.61739624  0.54113410     0.07900
F1477       F  0.28618787  0.65251345  0.66501979    -0.19600
F1478       F  0.30547860  0.67748776  0.63363030    -0.15800
F1479       F  0.33142886  0.65500443  0.66204938    -0.19300
F1480       F  0.32435994  0.56526028  0.55492998    -0.22700
F1481       F  0.27965166  0.56300678  0.56007881    -0.24100
F1482       F  0.30665941  0.53860915  0.58618923    -0.18100
F1483       F  0.35100054  0.62038800  0.49654700    -0.20600
F1484       F  0.33651998  0.66174161  0.48739929    -0.21800
F1485       F  0.31913467  0.62623133  0.46569607    -0.19000
F1486       F  0.22011260  0.62862912  0.56161506    -0.19100
F1487       F  0.24986177  0.64318404  0.59166938    -0.22900
F1488       F  0.24552126  0.59917085  0.58361126    -0.24500
C1489       C  0.26387177  0.46387582  0.79716653    -0.11300
C1490       C  0.25687329  0.47266016  0.82286379     0.11300
C1491       C  0.25945383  0.50003512  0.82949965    -0.03100
C1492       C  0.26923879  0.51765490  0.81003693    -0.05800
C1493       C  0.27647277  0.50885299  0.78449942    -0.16600
C1494       C  0.27373995  0.48158255  0.77774916     0.02300
C1495       C  0.25041847  0.45187450  0.84282573     0.12300
C1496       C  0.25290068  0.51179875  0.85666898     0.62900
H1497       H  0.27164150  0.53843798  0.81496073     0.12300
C1498       C  0.28252689  0.47107956  0.75069098     0.55000
H1499       H  0.26237947  0.44277116  0.79277763     0.08100
C1500       C  0.22491252  0.43979649  0.84429421    -0.05700
C1501       C  0.22134719  0.41799991  0.86165133    -0.06500
C1502       C  0.24244191  0.40826944  0.87749579    -0.16100
C1503       C  0.26782517  0.42105275  0.87654919    -0.01600
C1504       C  0.27124197  0.44282972  0.85920827    -0.09200
C1505       C  0.20175115  0.44998977  0.82753449     0.65100
H1506       H  0.20218673  0.40791549  0.86251410     0.10500
C1507       C  0.29174416  0.41082863  0.89232516     0.63500
H1508       H  0.29054917  0.45252619  0.85754116     0.07900
F1509       F  0.26768530  0.48313443  0.73073646    -0.19600
F1510       F  0.27902335  0.44374199  0.74858975    -0.15800
F1511       F  0.30937310  0.47659322  0.74679135    -0.19300
F1512       F  0.27604263  0.52199570  0.86791556    -0.22700
F1513       F  0.24201007  0.49353586  0.87424074    -0.24100
F1514       F  0.23467737  0.53236521  0.85351050    -0.18100
F1515       F  0.29666169  0.38447616  0.88577753    -0.20600
F1516       F  0.28673046  0.41287091  0.91938791    -0.21800
F1517       F  0.31476419  0.42523385  0.88693251    -0.19000
F1518       F  0.17836945  0.43606356  0.83259191    -0.19100
F1519       F  0.20764614  0.44734284  0.80070259    -0.22900
F1520       F  0.19727734  0.47663824  0.83322814    -0.24500
C1521       C  0.28815424  0.63851525  0.85363263    -0.11300
C1522       C  0.29797746  0.66470271  0.85413266     0.11300
C1523       C  0.31629342  0.67333925  0.83436681    -0.03100
C1524       C  0.32319288  0.65562572  0.81382332    -0.05800
C1525       C  0.31232288  0.62985490  0.81238863    -0.16600
C1526       C  0.29485488  0.62085262  0.83279231     0.02300
C1527       C  0.28717779  0.68375958  0.87396006     0.12300
C1528       C  0.32786357  0.70144122  0.83451491     0.62900
H1529       H  0.33662669  0.66205146  0.79812119     0.12300
C1530       C  0.28235832  0.59332588  0.83184435     0.55000
H1531       H  0.27435364  0.63243537  0.86913951     0.08100
C1532       C  0.26407560  0.69902768  0.86820947    -0.05700
C1533       C  0.25941028  0.72221588  0.88316978    -0.06500
C1534       C  0.27670961  0.72995166  0.90386993    -0.16100
C1535       C  0.29729484  0.71233362  0.91228370    -0.01600
C1536       C  0.30235598  0.68938901  0.89683429    -0.09200
C1537       C  0.24523022  0.69149399  0.84560109     0.65100
H1538       H  0.24310060  0.73542437  0.87775058     0.10500
C1539       C  0.31465392  0.71836035  0.93642146     0.63500
H1540       H  0.31934056  0.67670705  0.90132464     0.07900
F1541       F  0.26429576  0.58940964  0.85242691    -0.19600
F1542       F  0.30220840  0.57421617  0.83407363    -0.15800
F1543       F  0.26883708  0.59002169  0.80794462    -0.19300
F1544       F  0.34233811  0.70548948  0.85769628    -0.22700
F1545       F  0.30748294  0.72007492  0.83310594    -0.24100
F1546       F  0.34483320  0.70577164  0.81310537    -0.18100
F1547       F  0.29871994  0.72008731  0.95893083    -0.20600
F1548       F  0.33350493  0.69856395  0.94083723    -0.21800
F1549       F  0.32806505  0.74223198  0.93277034    -0.19000
F1550       F  0.22378177  0.70892063  0.84373723    -0.19100
F1551       F  0.23517628  0.66616973  0.85003890    -0.22900
F1552       F  0.25867632  0.69180179  0.82148736    -0.24500
C1553       C  0.44510117  0.63182947  0.75315006    -0.11300
C1554       C  0.44326279  0.65926345  0.74817643     0.11300
C1555       C  0.42128082  0.66951470  0.73375882    -0.03100
C1556       C  0.39977265  0.65239925  0.72815703    -0.05800
C1557       C  0.39981994  0.62542064  0.73630200    -0.16600
C1558       C  0.42384634  0.61443918  0.74699787     0.02300
C1559       C  0.46297270  0.67728956  0.76079448     0.12300
C1560       C  0.42026775  0.69864072  0.72524129     0.62900
H1561       H  0.38205017  0.66062177  0.71882777     0.12300
C1562       C  0.42722717  0.58485564  0.75263759     0.55000
H1563       H  0.46270047  0.62437752  0.76338876     0.08100
C1564       C  0.45872673  0.68724472  0.78691161    -0.05700
C1565       C  0.47675614  0.70608792  0.79710427    -0.06500
C1566       C  0.49877962  0.71488763  0.78222697    -0.16100
C1567       C  0.50373792  0.70405723  0.75659297    -0.01600
C1568       C  0.48550559  0.68532040  0.74617852    -0.09200
C1569       C  0.43529988  0.67794591  0.80395348     0.65100
H1570       H  0.47363003  0.71437559  0.81678971     0.10500
C1571       C  0.52850526  0.71167380  0.74079468     0.63500
H1572       H  0.48845119  0.67703260  0.72642188     0.07900
F1573       F  0.45396203  0.57810935  0.75554907    -0.19600
F1574       F  0.41708281  0.56999129  0.73165038    -0.15800
F1575       F  0.41409778  0.57817189  0.77599139    -0.19300
F1576       F  0.44201463  0.70426748  0.70914125    -0.22700
F1577       F  0.42098994  0.71513361  0.74736316    -0.24100
F1578       F  0.39725024  0.70445409  0.71096334    -0.18100
F1579       F  0.55116053  0.70699766  0.75602185    -0.20600
F1580       F  0.52746052  0.73840024  0.73399331    -0.21800
F1581       F  0.53070003  0.69700563  0.71747604    -0.19000
F1582       F  0.43481214  0.69053603  0.82856507    -0.19100
F1583       F  0.43727015  0.65077285  0.80835777    -0.22900
F1584       F  0.41133915  0.68332903  0.79121745    -0.24500
C1585       C  0.56980345  0.59512446  0.30632210    -0.11300
C1586       C  0.59476508  0.58842067  0.29529759     0.11300
C1587       C  0.61269123  0.60899306  0.28787306    -0.03100
C1588       C  0.60504641  0.63567737  0.29190146    -0.05800
C1589       C  0.57992804  0.64270682  0.30249311    -0.16600
C1590       C  0.56194057  0.62203238  0.31005829     0.02300
C1591       C  0.60171910  0.55982457  0.29070226     0.12300
C1592       C  0.63965259  0.60281464  0.27515037     0.62900
H1593       H  0.61848455  0.65147965  0.28576017     0.12300
C1594       C  0.53492709  0.62812513  0.32251813     0.55000
H1595       H  0.55636515  0.57902424  0.31163733     0.08100
C1596       C  0.61489219  0.54425394  0.31027237    -0.05700
C1597       C  0.62645866  0.51975758  0.30259774    -0.06500
C1598       C  0.62418987  0.50991351  0.27637478    -0.16100
C1599       C  0.60830715  0.52423246  0.25761758    -0.01600
C1600       C  0.59749087  0.54912326  0.26518133    -0.09200
C1601       C  0.61667499  0.55359297  0.33904550     0.65100
H1602       H  0.63788488  0.50827539  0.31697023     0.10500
C1603       C  0.60370634  0.51407290  0.22940883     0.63500
H1604       H  0.58664005  0.56114009  0.25080669     0.07900
F1605       F  0.52238178  0.60521085  0.33158961    -0.19600
F1606       F  0.51829035  0.63997707  0.30390003    -0.15800
F1607       F  0.53825407  0.64510159  0.34404966    -0.19300
F1608       F  0.63584688  0.58995501  0.25102791    -0.22700
F1609       F  0.65459032  0.58660743  0.29181167    -0.24100
F1610       F  0.65435745  0.62573116  0.27030647    -0.18100
F1611       F  0.58950540  0.49040278  0.23027140    -0.20600
F1612       F  0.62795769  0.50987249  0.21684326    -0.21800
F1613       F  0.58918793  0.53201129  0.21413143    -0.19000
F1614       F  0.63038270  0.53553616  0.35491969    -0.19100
F1615       F  0.59113191  0.55642900  0.34928022    -0.22900
F1616       F  0.62973640  0.57786833  0.34048716    -0.24500
C1617       C  0.72934348  0.30732389  0.11943805    -0.11300
C1618       C  0.70342007  0.31693208  0.12409111     0.11300
C1619       C  0.68165363  0.30710576  0.10885949    -0.03100
C1620       C  0.68620707  0.28561363  0.09146429    -0.05800
C1621       C  0.71162659  0.27401773  0.08919111    -0.16600
C1622       C  0.73391154  0.28610815  0.10177590     0.02300
C1623       C  0.69921373  0.33571636  0.14643648     0.12300
C1624       C  0.65360527  0.31840036  0.11200878     0.62900
H1625       H  0.66947963  0.27616727  0.08137533     0.12300
C1626       C  0.76250117  0.27664252  0.09781524     0.50200
H1627       H  0.74599220  0.31573738  0.13055621     0.08100
C1628       C  0.69568906  0.32644318  0.17282985    -0.05700
C1629       C  0.68928291  0.34501654  0.19274421    -0.06500
C1630       C  0.68655603  0.37253592  0.18737156    -0.16100
C1631       C  0.69163195  0.38183844  0.16085656    -0.01600
C1632       C  0.69785458  0.36300653  0.14094681    -0.09200
C1633       C  0.69851903  0.29699288  0.17982211     0.65100
H1634       H  0.68597035  0.33777801  0.21296580     0.10500
C1635       C  0.69064362  0.41118577  0.15315315     0.63500
H1636       H  0.70121503  0.36938893  0.12035757     0.07900
F1637       F  0.77134261  0.26405462  0.12076417    -0.19600
F1638       F  0.77881545  0.29837358  0.09273640    -0.15800
F1639       F  0.76498022  0.25922231  0.07651497    -0.19300
F1640       F  0.65363985  0.34520251  0.10544466    -0.22700
F1641       F  0.64504885  0.31549012  0.13809074    -0.24100
F1642       F  0.63536503  0.30562306  0.09556391    -0.18100
F1643       F  0.69845408  0.41530237  0.12694352    -0.20600
F1644       F  0.70778730  0.42569081  0.16928079    -0.21800
F1645       F  0.66479422  0.42073787  0.15571350    -0.19000
F1646       F  0.69368541  0.29218749  0.20661560    -0.19100
F1647       F  0.72423238  0.28847184  0.17422303    -0.22900
F1648       F  0.68055790  0.28197739  0.16513652    -0.24500
C1649       C  0.55077791  0.36646588  0.23340944    -0.11300
C1650       C  0.55138527  0.34138589  0.24566065     0.11300
C1651       C  0.57286391  0.33463122  0.26275347    -0.03100
C1652       C  0.59330055  0.35352671  0.26690834    -0.05800
C1653       C  0.59354426  0.37840989  0.25365380    -0.16600
C1654       C  0.57141196  0.38521992  0.23693253     0.02300
C1655       C  0.53100958  0.32164953  0.23705910     0.12300
C1656       C  0.57468399  0.30723678  0.27572234     0.62900
H1657       H  0.61010810  0.34821034  0.27947235     0.12300
C1658       C  0.56946259  0.41156643  0.22195059     0.55000
H1659       H  0.53441536  0.37069603  0.21984530     0.08100
C1660       C  0.50437911  0.32187801  0.24677566    -0.05700
C1661       C  0.48565122  0.30414207  0.23544117    -0.06500
C1662       C  0.49273415  0.28722408  0.21429067    -0.16100
C1663       C  0.51937592  0.28693812  0.20469644    -0.01600
C1664       C  0.53811490  0.30424970  0.21633944    -0.09200
C1665       C  0.49568322  0.34130242  0.26835710     0.65100
H1666       H  0.46507035  0.30407969  0.24225002     0.10500
C1667       C  0.52796030  0.26841594  0.18224852     0.63500
H1668       H  0.55843727  0.30494766  0.20882755     0.07900
F1669       F  0.54434357  0.41533852  0.21084486    -0.19600
F1670       F  0.58788885  0.41198863  0.20134480    -0.15800
F1671       F  0.57414777  0.43261280  0.23920425    -0.19300
F1672       F  0.57709445  0.28776449  0.25631934    -0.22700
F1673       F  0.55192435  0.30234083  0.29058446    -0.24100
F1674       F  0.59658669  0.30518489  0.29256444    -0.18100
F1675       F  0.55519444  0.26999408  0.17745319    -0.20600
F1676       F  0.51473369  0.27511534  0.15892917    -0.21800
F1677       F  0.52199612  0.24230195  0.18892822    -0.19000
F1678       F  0.46928633  0.33733489  0.27575250    -0.19100
F1679       F  0.49813584  0.36720717  0.25917723    -0.22900
F1680       F  0.51150810  0.33816147  0.29078187    -0.24500
C1681       C  0.74920486  0.51748361  0.17713930    -0.11300
C1682       C  0.73202250  0.53660238  0.16597232     0.11300
C1683       C  0.70440038  0.53618559  0.17212887    -0.03100
C1684       C  0.69502746  0.51695872  0.19019626    -0.05800
C1685       C  0.71224487  0.49832928  0.20231246    -0.16600
C1686       C  0.73980115  0.49822096  0.19538593     0.02300
C1687       C  0.74337211  0.55742936  0.14833465     0.12300
C1688       C  0.68494807  0.55618058  0.15992481     0.62900
H1689       H  0.67405786  0.51670465  0.19544597     0.12300
C1690       C  0.75914605  0.47778508  0.20674353     0.55000
H1691       H  0.77019049  0.51815594  0.17179679     0.08100
C1692       C  0.75302628  0.58179733  0.15877251    -0.05700
C1693       C  0.75876456  0.60262401  0.14094208    -0.06500
C1694       C  0.75571114  0.59951913  0.11321483    -0.16100
C1695       C  0.74903134  0.57408117  0.10269191    -0.01600
C1696       C  0.74270028  0.55338630  0.12063618    -0.09200
C1697       C  0.75712393  0.58573954  0.18858746     0.65100
H1698       H  0.76456116  0.62196491  0.14868568     0.10500
C1699       C  0.74929757  0.56853896  0.07287683     0.63500
H1700       H  0.73612672  0.53416393  0.11320715     0.07900
F1701       F  0.76321568  0.48270206  0.23360087    -0.19600
F1702       F  0.78376581  0.47873626  0.19409886    -0.15800
F1703       F  0.74891366  0.45233497  0.20347516    -0.19300
F1704       F  0.68526677  0.55402413  0.13241486    -0.22700
F1705       F  0.69211730  0.58186352  0.16702002    -0.24100
F1706       F  0.65892561  0.55194131  0.16843646    -0.18100
F1707       F  0.74677632  0.54153638  0.06751308    -0.20600
F1708       F  0.77329340  0.57713477  0.06211239    -0.21800
F1709       F  0.72836871  0.58160062  0.06041591    -0.19000
F1710       F  0.76581160  0.61130727  0.19451394    -0.19100
F1711       F  0.77624029  0.56793038  0.19763007    -0.22900
F1712       F  0.73349679  0.58138803  0.20224515    -0.24500
C1713       C  0.72126862  0.38319256  0.43457406    -0.11300
C1714       C  0.69659370  0.39652741  0.43484852     0.11300
C1715       C  0.68117912  0.39699352  0.45858617    -0.03100
C1716       C  0.69101983  0.38353233  0.48128074    -0.05800
C1717       C  0.71583265  0.37037579  0.48095158    -0.16600
C1718       C  0.73154000  0.37060378  0.45742203     0.02300
C1719       C  0.68746680  0.40864919  0.40933373     0.12300
C1720       C  0.65422029  0.41091069  0.45983554     0.62900
H1721       H  0.67915282  0.38273307  0.49937271     0.12300
C1722       C  0.75859862  0.35681905  0.45613075     0.55000
H1723       H  0.73242294  0.38262213  0.41602972     0.08100
C1724       C  0.70066070  0.43095386  0.39793843    -0.05700
C1725       C  0.69540554  0.43740671  0.37109504    -0.06500
C1726       C  0.67679693  0.42285233  0.35587286    -0.16100
C1727       C  0.66059067  0.40357371  0.36875199    -0.01600
C1728       C  0.66723194  0.39570523  0.39484877    -0.09200
C1729       C  0.72057131  0.44750670  0.41384148     0.65100
H1730       H  0.70718058  0.45271254  0.36136042     0.10500
C1731       C  0.63638012  0.39093531  0.35557888     0.63500
H1732       H  0.65689251  0.37892180  0.40376691     0.07900
F1733       F  0.76976861  0.35817068  0.43087203    -0.19600
F1734       F  0.75578017  0.33021603  0.46277012    -0.15800
F1735       F  0.77614869  0.36884730  0.47377269    -0.19300
F1736       F  0.63542242  0.39617121  0.44596365    -0.22700
F1737       F  0.65593139  0.43613673  0.44875006    -0.24100
F1738       F  0.64543950  0.41369374  0.48590494    -0.18100
F1739       F  0.64312841  0.36600944  0.34585195    -0.20600
F1740       F  0.62660502  0.40653429  0.33493554    -0.21800
F1741       F  0.61597300  0.38814634  0.37405638    -0.19000
F1742       F  0.72830509  0.47018822  0.40006117    -0.19100
F1743       F  0.74330667  0.43277628  0.41931483    -0.22900
F1744       F  0.70902100  0.45552218  0.43760743    -0.24500
C1745       C  0.59211428  0.32485217  0.57423188    -0.11300
C1746       C  0.58645439  0.31395479  0.59947303     0.11300
C1747       C  0.60780896  0.30619102  0.61640609    -0.03100
C1748       C  0.63420934  0.31088708  0.60798317    -0.05800
C1749       C  0.64004055  0.32139296  0.58262544    -0.16600
C1750       C  0.61871870  0.32823418  0.56522474     0.02300
C1751       C  0.55808743  0.30901766  0.60718915     0.12300
C1752       C  0.60280136  0.29171839  0.64266073     0.62900
H1753       H  0.65074441  0.30498179  0.62071106     0.12300
C1754       C  0.62402462  0.33903004  0.53743288     0.55000
H1755       H  0.57545302  0.32998466  0.56135285     0.08100
C1756       C  0.54280731  0.32789071  0.62162888    -0.05700
C1757       C  0.51775602  0.32005659  0.63202233    -0.06500
C1758       C  0.50731055  0.29426470  0.62778586    -0.16100
C1759       C  0.52194907  0.27611068  0.61143150    -0.01600
C1760       C  0.54709142  0.28398424  0.60141532    -0.09200
C1761       C  0.55306448  0.35609922  0.62596803     0.65100
H1762       H  0.50632188  0.33392848  0.64406910     0.10500
C1763       C  0.51200589  0.24804565  0.60551406     0.63500
H1764       H  0.55905716  0.27018756  0.58980424     0.07900
F1765       F  0.60070210  0.34744877  0.52507681    -0.19600
F1766       F  0.63535044  0.31931780  0.52176093    -0.15800
F1767       F  0.64130383  0.36055505  0.53887878    -0.19300
F1768       F  0.59058763  0.26746487  0.63766553    -0.22700
F1769       F  0.58643620  0.30677029  0.65900911    -0.24100
F1770       F  0.62635796  0.28675228  0.65639124    -0.18100
F1771       F  0.48848979  0.24932489  0.59097622    -0.20600
F1772       F  0.50762955  0.23442567  0.62913297    -0.21800
F1773       F  0.53028188  0.23348053  0.59069323    -0.19000
F1774       F  0.53504458  0.37148256  0.64025174    -0.19100
F1775       F  0.55720111  0.36822130  0.60151262    -0.22900
F1776       F  0.57696979  0.35564498  0.63987793    -0.24500
C1777       C  0.71151525  0.18956911  0.59789727    -0.11300
C1778       C  0.69986538  0.19012429  0.62333203     0.11300
C1779       C  0.69149915  0.21459109  0.63460541    -0.03100
C1780       C  0.69579447  0.23800378  0.62009730    -0.05800
C1781       C  0.70854738  0.23796647  0.59503857    -0.16600
C1782       C  0.71575773  0.21319254  0.58318311     0.02300
C1783       C  0.69876015  0.16533605  0.63914898     0.12300
C1784       C  0.67868548  0.21614707  0.66217903     0.62900
H1785       H  0.68947698  0.25683191  0.62864486     0.12300
C1786       C  0.72814023  0.21145628  0.55556781     0.55000
H1787       H  0.71768068  0.17043305  0.58992573     0.08100
C1788       C  0.67634931  0.14819571  0.63870278    -0.05700
C1789       C  0.67367010  0.12929155  0.65928579    -0.06500
C1790       C  0.69300402  0.12705858  0.67961078    -0.16100
C1791       C  0.71719597  0.14168550  0.67751255    -0.01600
C1792       C  0.71950448  0.16090306  0.65735174    -0.09200
C1793       C  0.65539442  0.15027319  0.61684919     0.65100
H1794       H  0.65573316  0.11720693  0.66045361     0.10500
C1795       C  0.74015091  0.13831556  0.69694942     0.63500
H1796       H  0.73685826  0.17389172  0.65677531     0.07900
F1797       F  0.71007102  0.22064721  0.53674475    -0.19600
F1798       F  0.73478846  0.18547341  0.54884238    -0.15800
F1799       F  0.75124786  0.22662798  0.55457512    -0.19300
F1800       F  0.69655306  0.20744777  0.68138592    -0.22700
F1801       F  0.65601258  0.20039051  0.66304796    -0.24100
F1802       F  0.67119233  0.24195581  0.66870577    -0.18100
F1803       F  0.76405980  0.14636598  0.68554784    -0.20600
F1804       F  0.74295816  0.11182890  0.70415856    -0.21800
F1805       F  0.73544405  0.15363689  0.71942787    -0.19000
F1806       F  0.63541113  0.13138126  0.61989326    -0.19100
F1807       F  0.66741817  0.14620293  0.59232878    -0.22900
F1808       F  0.64365209  0.17526107  0.61705834    -0.24500
C1809       C  0.88877166  0.28333532  0.68222199    -0.11300
C1810       C  0.86549054  0.29911241  0.68139330     0.11300
C1811       C  0.85563338  0.31077265  0.70524946    -0.03100
C1812       C  0.86869669  0.30509363  0.72926979    -0.05800
C1813       C  0.89170319  0.28914951  0.73031442    -0.16600
C1814       C  0.90244901  0.27847493  0.70644944     0.02300
C1815       C  0.84969634  0.30023620  0.65639055     0.12300
C1816       C  0.83115325  0.32877698  0.70699936     0.62900
H1817       H  0.86083253  0.31348332  0.74765739     0.12300
C1818       C  0.92742846  0.26126474  0.70678871     0.55000
H1819       H  0.89575787  0.27437230  0.66381913     0.08100
C1820       C  0.85349015  0.32041270  0.63704732    -0.05700
C1821       C  0.83299487  0.32505524  0.61823930    -0.06500
C1822       C  0.80940850  0.30967036  0.61814403    -0.16100
C1823       C  0.80788894  0.28676364  0.63490189    -0.01600
C1824       C  0.82789774  0.28285680  0.65420645    -0.09200
C1825       C  0.87852449  0.33749083  0.63719864     0.65100
H1826       H  0.83461371  0.34171188  0.60456114     0.10500
C1827       C  0.78535840  0.26645925  0.63286083     0.63500
H1828       H  0.82586983  0.26701215  0.66880068     0.07900
F1829       F  0.94901925  0.27617960  0.71548878    -0.19600
F1830       F  0.93344605  0.25143155  0.68166476    -0.15800
F1831       F  0.92375609  0.23981689  0.72379994    -0.19300
F1832       F  0.81124257  0.31568922  0.72100058    -0.22700
F1833       F  0.82099531  0.33627150  0.68247614    -0.24100
F1834       F  0.83786087  0.35186941  0.72062058    -0.18100
F1835       F  0.79211907  0.24269276  0.64529777    -0.20600
F1836       F  0.78004210  0.26078550  0.60633794    -0.21800
F1837       F  0.76251497  0.27623779  0.64497761    -0.19000
F1838       F  0.87882878  0.35538778  0.61613551    -0.19100
F1839       F  0.90082752  0.32126768  0.63499741    -0.22900
F1840       F  0.88005607  0.35176506  0.66078063    -0.24500
C1841       C  0.72591598  0.44229018  0.63481958    -0.11300
C1842       C  0.75139585  0.45363510  0.63749002     0.11300
C1843       C  0.77282128  0.44434374  0.62148354    -0.03100
C1844       C  0.76834279  0.42246848  0.60452648    -0.05800
C1845       C  0.74350231  0.40940638  0.60378877    -0.16600
C1846       C  0.72145701  0.42039120  0.61785320     0.02300
C1847       C  0.75620646  0.47212391  0.65998029     0.12300
C1848       C  0.80070664  0.45637920  0.62353739     0.62900
H1849       H  0.78488986  0.41401181  0.59342883     0.12300
C1850       C  0.69354157  0.40861980  0.61591919     0.55000
H1851       H  0.70985537  0.44967687  0.64731934     0.08100
C1852       C  0.75179405  0.49991125  0.65816409    -0.05700
C1853       C  0.76062338  0.51618801  0.67930143    -0.06500
C1854       C  0.77297808  0.50530807  0.70203344    -0.16100
C1855       C  0.77539023  0.47721576  0.70463180    -0.01600
C1856       C  0.76659509  0.46112425  0.68351599    -0.09200
C1857       C  0.73794335  0.51212465  0.63409611     0.65100
H1858       H  0.75857113  0.53764685  0.67794930     0.10500
C1859       C  0.78775165  0.46292452  0.72840722     0.63500
H1860       H  0.76903736  0.43962756  0.68486585     0.07900
F1861       F  0.68798301  0.40127385  0.58985803    -0.19600
F1862       F  0.67432562  0.42695727  0.62372317    -0.15800
F1863       F  0.69161231  0.38650216  0.63231710    -0.19300
F1864       F  0.81132469  0.45152974  0.64856598    -0.22700
F1865       F  0.79956277  0.48362280  0.61938480    -0.24100
F1866       F  0.81798651  0.44566642  0.60478031    -0.18100
F1867       F  0.76884741  0.44614584  0.73959008    -0.20600
F1868       F  0.79677029  0.47991917  0.74810644    -0.21800
F1869       F  0.80920595  0.44770696  0.71982580    -0.19000
F1870       F  0.73557792  0.53954448  0.63644581    -0.19100
F1871       F  0.71249450  0.50158088  0.63164792    -0.22900
F1872       F  0.75220239  0.50666413  0.61111122    -0.24500
C1873       C  0.85745244  0.35764842  0.29752441    -0.11300
C1874       C  0.83101765  0.35417676  0.30640894     0.11300
C1875       C  0.82413507  0.33139422  0.32170332    -0.03100
C1876       C  0.84390911  0.31218026  0.32663624    -0.05800
C1877       C  0.86980454  0.31471244  0.31622469    -0.16600
C1878       C  0.87717576  0.33806143  0.30221483     0.02300
C1879       C  0.81002093  0.37248955  0.29643618     0.12300
C1880       C  0.79560339  0.32625317  0.33102867     0.62900
H1881       H  0.83884125  0.29402437  0.33726271     0.12300
C1882       C  0.90526071  0.34150020  0.29126400     0.55000
H1883       H  0.86212843  0.37517933  0.28576932     0.08100
C1884       C  0.80221167  0.39575331  0.31034822    -0.05700
C1885       C  0.77861015  0.40893689  0.30232210    -0.06500
C1886       C  0.76313740  0.39952308  0.28080603    -0.16100
C1887       C  0.77296950  0.37807174  0.26502250    -0.01600
C1888       C  0.79626267  0.36481176  0.27333583    -0.09200
C1889       C  0.81858284  0.40621965  0.33364835     0.65100
H1890       H  0.77127303  0.42575276  0.31377508     0.10500
C1891       C  0.75867157  0.36823999  0.24008917     0.63500
H1892       H  0.80309368  0.34726866  0.26264374     0.07900
F1893       F  0.92344706  0.34158987  0.31209930    -0.19600
F1894       F  0.90799809  0.36521824  0.27734791    -0.15800
F1895       F  0.91129342  0.32071197  0.27411407    -0.19300
F1896       F  0.77936152  0.32140954  0.30920650    -0.22700
F1897       F  0.78581965  0.34806117  0.34479073    -0.24100
F1898       F  0.79411603  0.30435870  0.34786042    -0.18100
F1899       F  0.77580761  0.35385444  0.22379364    -0.20600
F1900       F  0.74906721  0.38958553  0.22538167    -0.21800
F1901       F  0.73763516  0.35177393  0.24717700    -0.19000
F1902       F  0.80744053  0.42908363  0.34448956    -0.19100
F1903       F  0.84412499  0.41230334  0.32497060    -0.22900
F1904       F  0.82027081  0.38721432  0.35358645    -0.24500
C1905       C  0.83222166  0.25896337  0.48524778    -0.11300
C1906       C  0.82420060  0.25606024  0.45856518     0.11300
C1907       C  0.79754822  0.26243475  0.45116337    -0.03100
C1908       C  0.78030721  0.27316551  0.47056205    -0.05800
C1909       C  0.78915199  0.27870521  0.49656932    -0.16600
C1910       C  0.81530378  0.27070679  0.50442718     0.02300
C1911       C  0.84476198  0.24926528  0.43818146     0.12300
C1912       C  0.78755996  0.25878122  0.42270770     0.62900
H1913       H  0.76003502  0.27857290  0.46514117     0.12300
C1914       C  0.82554942  0.27470465  0.53273925     0.55000
H1915       H  0.85247816  0.25334652  0.49056661     0.08100
C1916       C  0.86349029  0.26855948  0.42932207    -0.05700
C1917       C  0.88010851  0.26222318  0.40767045    -0.06500
C1918       C  0.87748474  0.23816329  0.39347753    -0.16100
C1919       C  0.85892883  0.21872189  0.40250807    -0.01600
C1920       C  0.84367678  0.22425531  0.42556076    -0.09200
C1921       C  0.86499518  0.29631444  0.44162551     0.65100
H1922       H  0.89413516  0.27701326  0.40041902     0.10500
C1923       C  0.85449026  0.19274391  0.38758248     0.63500
H1924       H  0.82945273  0.20972579  0.43293081     0.07900
F1925       F  0.83082573  0.30143871  0.53715847    -0.19600
F1926       F  0.84896100  0.26060104  0.53728482    -0.15800
F1927       F  0.80666677  0.26592091  0.55091679    -0.19300
F1928       F  0.78697583  0.23192188  0.41645104    -0.22700
F1929       F  0.80423043  0.27192314  0.40501993    -0.24100
F1930       F  0.76195291  0.26881404  0.41932199    -0.18100
F1931       F  0.83871907  0.17519926  0.40202148    -0.20600
F1932       F  0.87877506  0.18043976  0.38264898    -0.21800
F1933       F  0.84164663  0.19782301  0.36364465    -0.19000
F1934       F  0.88275910  0.31268567  0.42813200    -0.19100
F1935       F  0.87348231  0.29457362  0.46782900    -0.22900
F1936       F  0.84008614  0.30836115  0.44079716    -0.24500
C1937       C  0.07109498  0.34348035  0.23603641    -0.11300
C1938       C  0.04750074  0.35574481  0.24458873     0.11300
C1939       C  0.04619647  0.38391332  0.24629665    -0.03100
C1940       C  0.06930095  0.39888864  0.24020548    -0.05800
C1941       C  0.09354303  0.38654936  0.23280501    -0.16600
C1942       C  0.09420611  0.35820248  0.22993511     0.02300
C1943       C  0.02624822  0.33796633  0.25520640     0.12300
C1944       C  0.02078178  0.39796751  0.25522633     0.62900
H1945       H  0.06889552  0.42040340  0.24227026     0.12300
C1946       C  0.11930391  0.34298893  0.22186270     0.55000
H1947       H  0.07153260  0.32187069  0.23540291     0.08100
C1948       C  0.00917418  0.32283115  0.23848338    -0.05700
C1949       C  0.99192185  0.30390722  0.25023294    -0.06500
C1950       C  0.99187837  0.29926360  0.27792719    -0.16100
C1951       C  0.00949996  0.31421402  0.29457082    -0.01600
C1952       C  0.02616985  0.33345715  0.28277819    -0.09200
C1953       C  0.00997256  0.32594680  0.20834453     0.65100
H1954       H  0.97867753  0.29216279  0.23776934     0.10500
C1955       C  0.01192255  0.30918954  0.32447321     0.63500
H1956       H  0.04006435  0.34474895  0.29496659     0.07900
F1957       F  0.11532418  0.31563205  0.22166712    -0.19600
F1958       F  0.13982961  0.34825943  0.23965514    -0.15800
F1959       F  0.12681776  0.35040432  0.19637015    -0.19300
F1960       F  0.01496188  0.39122577  0.28134148    -0.22700
F1961       F  0.99963294  0.39046669  0.23908383    -0.24100
F1962       F  0.02322256  0.42546734  0.25381376    -0.18100
F1963       F  0.03343381  0.32266190  0.33555706    -0.20600
F1964       F  0.01567878  0.28224393  0.32927236    -0.21800
F1965       F  0.98902706  0.31782694  0.33734214    -0.19000
F1966       F  0.98961297  0.31181795  0.19601938    -0.19100
F1967       F  0.03411829  0.31654729  0.19870604    -0.22900
F1968       F  0.00725050  0.35251833  0.20142062    -0.24500
C1969       C  0.85848105  0.24015040  0.18564215    -0.11300
C1970       C  0.86345894  0.21624656  0.17189094     0.11300
C1971       C  0.88575504  0.20038502  0.17918028    -0.03100
C1972       C  0.90000941  0.20701715  0.20253878    -0.05800
C1973       C  0.89252097  0.22888766  0.21842680    -0.16600
C1974       C  0.87275687  0.24680998  0.20893840     0.02300
C1975       C  0.84270244  0.20646864  0.15292475     0.12300
C1976       C  0.89364114  0.17602509  0.16297051     0.62900
H1977       H  0.91579628  0.19397867  0.20964462     0.12300
C1978       C  0.86558142  0.27205189  0.22402351     0.55000
H1979       H  0.84182217  0.25250006  0.17929059     0.08100
C1980       C  0.81908753  0.19413768  0.16245031    -0.05700
C1981       C  0.79931153  0.18660200  0.14400544    -0.06500
C1982       C  0.80230931  0.19052430  0.11631630    -0.16100
C1983       C  0.82686382  0.20133195  0.10669396    -0.01600
C1984       C  0.84641865  0.20966139  0.12535721    -0.09200
C1985       C  0.81472494  0.18895960  0.19209356     0.65100
H1986       H  0.78098511  0.17769109  0.15129782     0.10500
C1987       C  0.83244270  0.20455596  0.07710675     0.63500
H1988       H  0.86478349  0.21892367  0.11861844     0.07900
F1989       F  0.84819109  0.26596423  0.24459282    -0.19600
F1990       F  0.85336764  0.29047420  0.20737143    -0.15800
F1991       F  0.88836804  0.28382520  0.23442920    -0.19300
F1992       F  0.89967484  0.18369454  0.13715049    -0.22700
F1993       F  0.87281854  0.15786359  0.16238112    -0.24100
F1994       F  0.91591768  0.16338349  0.17352651    -0.18100
F1995       F  0.85719507  0.21603977  0.07237259    -0.20600
F1996       F  0.81316679  0.22074764  0.06576181    -0.21800
F1997       F  0.83222395  0.17981345  0.06484039    -0.19000
F1998       F  0.79120652  0.17515127  0.19683712    -0.19100
F1999       F  0.81333672  0.21286262  0.20579307    -0.22900
F2000       F  0.83562387  0.17391875  0.20219958    -0.24500
C2001       C  0.31105299  0.11266513  0.70089222    -0.11300
C2002       C  0.31190944  0.14022734  0.70561406     0.11300
C2003       C  0.28882800  0.15356366  0.71504010    -0.03100
C2004       C  0.26548848  0.13863898  0.71939732    -0.05800
C2005       C  0.26392685  0.11113754  0.71365110    -0.16600
C2006       C  0.28733903  0.09775426  0.70448919     0.02300
C2007       C  0.33571837  0.15545105  0.69670943     0.12300
C2008       C  0.28831329  0.18372207  0.71905945     0.62900
H2009       H  0.24772918  0.14881503  0.72629894     0.12300
C2010       C  0.28723819  0.06835578  0.69716514     0.55000
H2011       H  0.32893812  0.10317548  0.69321360     0.08100
C2012       C  0.35728967  0.16178893  0.71391349    -0.05700
C2013       C  0.37622978  0.18078478  0.70530630    -0.06500
C2014       C  0.37437047  0.19261603  0.67996564    -0.16100
C2015       C  0.35454087  0.18387743  0.66181922    -0.01600
C2016       C  0.33543821  0.16531516  0.67053566    -0.09200
C2017       C  0.36022543  0.14847958  0.74098991     0.65100
H2018       H  0.39191311  0.18734238  0.71866981     0.10500
C2019       C  0.35345715  0.19454455  0.63353219     0.63500
H2020       H  0.31921503  0.15941583  0.65743713     0.07900
F2021       F  0.31162620  0.06013790  0.68692420    -0.19600
F2022       F  0.26788443  0.06355292  0.67797945    -0.15800
F2023       F  0.28205262  0.05319324  0.71961620    -0.19300
F2024       F  0.29253243  0.19646195  0.69494674    -0.22700
F2025       F  0.30803890  0.19138145  0.73680311    -0.24100
F2026       F  0.26400966  0.19243303  0.72909328    -0.18100
F2027       F  0.37787119  0.19013762  0.62131372    -0.20600
F2028       F  0.34806827  0.22160761  0.63388427    -0.21800
F2029       F  0.33383874  0.18209010  0.61848035    -0.19000
F2030       F  0.38289507  0.15719203  0.75432118    -0.19100
F2031       F  0.36226828  0.12116777  0.73756456    -0.22900
F2032       F  0.33826496  0.15386320  0.75684171    -0.24500
C2033       C  0.20839334  0.16851087  0.82901778    -0.11300
C2034       C  0.19043200  0.16749452  0.85041272     0.11300
C2035       C  0.16979349  0.14818760  0.85054016    -0.03100
C2036       C  0.16721812  0.13111972  0.82838784    -0.05800
C2037       C  0.18422528  0.13313983  0.80605543    -0.16600
C2038       C  0.20600723  0.15149769  0.80688527     0.02300
C2039       C  0.19120226  0.19007354  0.86948582     0.12300
C2040       C  0.15012559  0.14611782  0.87357237     0.62900
H2041       H  0.15088904  0.11693723  0.82784535     0.12300
C2042       C  0.22652922  0.15390358  0.78459841     0.55000
H2043       H  0.22359153  0.18393592  0.82915227     0.08100
C2044       C  0.21211595  0.19361596  0.88828424    -0.05700
C2045       C  0.21463426  0.21857691  0.90107340    -0.06500
C2046       C  0.19693686  0.23963271  0.89538447    -0.16100
C2047       C  0.17451882  0.23499729  0.87862825    -0.01600
C2048       C  0.17249163  0.21046252  0.86542837    -0.09200
C2049       C  0.23194211  0.17141254  0.89423954     0.65100
H2050       H  0.23129495  0.22229639  0.91442491     0.10500
C2051       C  0.15280619  0.25580790  0.87440728     0.63500
H2052       H  0.15689131  0.20749214  0.85067525     0.07900
F2053       F  0.24830373  0.16927044  0.79214109    -0.19600
F2054       F  0.21495232  0.16596246  0.76258948    -0.15800
F2055       F  0.23607899  0.12888388  0.77777924    -0.19300
F2056       F  0.13412123  0.16859628  0.87451398    -0.22700
F2057       F  0.16388935  0.14377948  0.89740429    -0.24100
F2058       F  0.13358493  0.12408961  0.87103939    -0.18100
F2059       F  0.13033728  0.24496752  0.86235797    -0.20600
F2060       F  0.16223274  0.27597095  0.85817489    -0.21800
F2061       F  0.14500777  0.26632545  0.89872501    -0.19000
F2062       F  0.24879364  0.17801483  0.91518409    -0.19100
F2063       F  0.24753563  0.16633123  0.87204252    -0.22900
F2064       F  0.21833224  0.14841163  0.90114914    -0.24500
C2065       C  0.05283374  0.13710844  0.76609688    -0.11300
C2066       C  0.04743898  0.15661564  0.74676991     0.11300
C2067       C  0.06228236  0.15681133  0.72273397    -0.03100
C2068       C  0.08374237  0.13873850  0.71989278    -0.05800
C2069       C  0.09033912  0.12017666  0.73999354    -0.16600
C2070       C  0.07383700  0.11858627  0.76310189     0.02300
C2071       C  0.02775166  0.17781503  0.75378647     0.12300
C2072       C  0.05518225  0.17574317  0.70013563     0.62900
H2073       H  0.09610133  0.13949074  0.70215460     0.12300
C2074       C  0.07893918  0.09846732  0.78524839     0.55000
H2075       H  0.04087822  0.13719561  0.78412721     0.08100
C2076       C  0.99994569  0.17284958  0.75653329    -0.05700
C2077       C  0.98378845  0.19241682  0.76863575    -0.06500
C2078       C  0.99426168  0.21675662  0.77777772    -0.16100
C2079       C  0.02198315  0.22203107  0.77443315    -0.01600
C2080       C  0.03811342  0.20243452  0.76233913    -0.09200
C2081       C  0.98621453  0.14738902  0.74744231     0.65100
H2082       H  0.96265051  0.18846938  0.77126020     0.10500
C2083       C  0.03613102  0.24708454  0.78415073     0.63500
H2084       H  0.05950158  0.20586544  0.76078698     0.07900
F2085       F  0.07650964  0.07284774  0.77524476    -0.19600
F2086       F  0.06082266  0.10108337  0.80599523    -0.15800
F2087       F  0.10433742  0.10205440  0.79565234    -0.19300
F2088       F  0.05813589  0.20193386  0.70825973    -0.22700
F2089       F  0.02889969  0.17153526  0.69251860    -0.24100
F2090       F  0.07132535  0.17182238  0.67801810    -0.18100
F2091       F  0.05739869  0.23993006  0.80037673    -0.20600
F2092       F  0.01992698  0.26405377  0.79861831    -0.21800
F2093       F  0.04594071  0.26090563  0.76234946    -0.19000
F2094       F  0.96572352  0.15382285  0.72998272    -0.19100
F2095       F  0.97541915  0.13455660  0.76938834    -0.22900
F2096       F  0.00317311  0.12985862  0.73450323    -0.24500
C2097       C  0.24757857  0.94959486  0.87078874    -0.11300
C2098       C  0.24361687  0.94667883  0.84319114     0.11300
C2099       C  0.24610688  0.92109523  0.83145183    -0.03100
C2100       C  0.25095878  0.89897675  0.84807548    -0.05800
C2101       C  0.25277214  0.90143765  0.87601708    -0.16600
C2102       C  0.25159922  0.92731352  0.88760528     0.02300
C2103       C  0.23397776  0.97001917  0.82736761     0.12300
C2104       C  0.24278449  0.91706931  0.80153889     0.62900
H2105       H  0.25198450  0.87922645  0.83935373     0.12300
C2106       C  0.25378744  0.93152760  0.91752528     0.55000
H2107       H  0.24591700  0.96941534  0.87926013     0.08100
C2108       C  0.20664810  0.97751226  0.82753498    -0.05700
C2109       C  0.19787544  0.99713603  0.80949669    -0.06500
C2110       C  0.21528865  0.00940459  0.79115167    -0.16100
C2111       C  0.24297269  0.00297658  0.79205418    -0.01600
C2112       C  0.25186114  0.98343236  0.81040436    -0.09200
C2113       C  0.18662124  0.96433012  0.84621447     0.65100
H2114       H  0.17685666  0.00241275  0.80898371     0.10500
C2115       C  0.26306823  0.01659629  0.77393422     0.63500
H2116       H  0.27276751  0.97769797  0.81097212     0.07900
F2117       F  0.25715765  0.95820972  0.92389888    -0.19600
F2118       F  0.27552121  0.91761116  0.92754629    -0.15800
F2119       F  0.23062443  0.92274056  0.92976197    -0.19300
F2120       F  0.26256367  0.93086520  0.78807796    -0.22700
F2121       F  0.21799516  0.92630540  0.79337667    -0.24100
F2122       F  0.24469545  0.89043475  0.79441029    -0.18100
F2123       F  0.28916562  0.01077293  0.78124661    -0.20600
F2124       F  0.25981187  0.04400118  0.77522573    -0.21800
F2125       F  0.25935611  0.00806996  0.74794586    -0.19000
F2126       F  0.16090792  0.97394436  0.84239869    -0.19100
F2127       F  0.19366539  0.96928066  0.87244241    -0.22900
F2128       F  0.18621453  0.93706948  0.84189861    -0.24500
C2129       C  0.37960587  0.22984474  0.30965131    -0.11300
C2130       C  0.35547599  0.21549574  0.31042083     0.11300
C2131       C  0.34508784  0.20395154  0.28676174    -0.03100
C2132       C  0.35940804  0.20719875  0.26295165    -0.05800
C2133       C  0.38325199  0.22189443  0.26196585    -0.16600
C2134       C  0.39376554  0.23336777  0.28555485     0.02300
C2135       C  0.33968634  0.21517389  0.33539587     0.12300
C2136       C  0.31849447  0.18908918  0.28639467     0.62900
H2137       H  0.35172671  0.19875695  0.24457240     0.12300
C2138       C  0.41894091  0.25025670  0.28492099     0.55000
H2139       H  0.38679252  0.23889963  0.32793527     0.08100
C2140       C  0.34233751  0.19477149  0.35470348    -0.05700
C2141       C  0.32232262  0.19228837  0.37431744    -0.06500
C2142       C  0.30009225  0.20957161  0.37489202    -0.16100
C2143       C  0.29971168  0.23217033  0.35776503    -0.01600
C2144       C  0.31956941  0.23442392  0.33811638    -0.09200
C2145       C  0.36575789  0.17544584  0.35405055     0.65100
H2146       H  0.32303668  0.17574229  0.38819865     0.10500
C2147       C  0.27782287  0.25318026  0.35875763     0.63500
H2148       H  0.31842416  0.25033104  0.32347361     0.07900
F2149       F  0.44049766  0.23476039  0.27722809    -0.19600
F2150       F  0.42465433  0.26114529  0.30968502    -0.15800
F2151       F  0.41572765  0.27098497  0.26693514    -0.19300
F2152       F  0.29791908  0.20633913  0.29292891    -0.22700
F2153       F  0.31895238  0.16831590  0.30454241    -0.24100
F2154       F  0.31293851  0.17843616  0.26148431    -0.18100
F2155       F  0.28656713  0.27707741  0.34793818    -0.20600
F2156       F  0.27021637  0.25816087  0.38484431    -0.21800
F2157       F  0.25592073  0.24453082  0.34424058    -0.19000
F2158       F  0.36483336  0.15746708  0.37503600    -0.19100
F2159       F  0.38947899  0.18953569  0.35590816    -0.22900
F2160       F  0.36566836  0.16112857  0.33046226    -0.24500
C2161       C  0.27080572  0.07646531  0.36460268    -0.11300
C2162       C  0.25340949  0.07145971  0.34325275     0.11300
C2163       C  0.22926891  0.08609744  0.34118889    -0.03100
C2164       C  0.22390009  0.10610848  0.36022792    -0.05800
C2165       C  0.24222181  0.11261924  0.38064784    -0.16600
C2166       C  0.26630864  0.09743349  0.38281313     0.02300
C2167       C  0.26160335  0.05119998  0.32303921     0.12300
C2168       C  0.20968540  0.08119085  0.31848561     0.62900
H2169       H  0.20562348  0.11762032  0.35862703     0.12300
C2170       C  0.28819846  0.10411506  0.40286362     0.55000
H2171       H  0.28878127  0.06445526  0.36603987     0.08100
C2172       C  0.28168804  0.05657941  0.30371029    -0.05700
C2173       C  0.28917882  0.03612170  0.28592123    -0.06500
C2174       C  0.27746166  0.01072717  0.28708135    -0.16100
C2175       C  0.25719573  0.00545247  0.30601287    -0.01600
C2176       C  0.24976758  0.02578612  0.32397880    -0.09200
C2177       C  0.29524473  0.08371326  0.30189507     0.65100
H2178       H  0.30472686  0.03958384  0.27125900     0.10500
C2179       C  0.24340743  0.97850925  0.30684775     0.63500
H2180       H  0.23480265  0.02193511  0.33911903     0.07900
F2181       F  0.29634160  0.13028245  0.39944670    -0.19600
F2182       F  0.31055155  0.08805066  0.39975215    -0.15800
F2183       F  0.27879831  0.10050816  0.42856684    -0.19300
F2184       F  0.19979788  0.05547959  0.31997332    -0.22700
F2185       F  0.22245429  0.08461042  0.29424168    -0.24100
F2186       F  0.18815967  0.09859266  0.31936598    -0.18100
F2187       F  0.26178330  0.95886796  0.31321467    -0.20600
F2188       F  0.23235443  0.97298633  0.28211558    -0.21800
F2189       F  0.22310245  0.97787483  0.32562447    -0.19000
F2190       F  0.31298391  0.08500142  0.28069892    -0.19100
F2191       F  0.30949759  0.08881662  0.32499349    -0.22900
F2192       F  0.27621938  0.10345565  0.29837284    -0.24500
C2193       C  0.32230662  0.25853445  0.50604071    -0.11300
C2194       C  0.31551103  0.26078891  0.53308874     0.11300
C2195       C  0.28869309  0.25629955  0.54111071    -0.03100
C2196       C  0.27049313  0.24573758  0.52236719    -0.05800
C2197       C  0.27838403  0.24008546  0.49606724    -0.16600
C2198       C  0.30404877  0.24832977  0.48721460     0.02300
C2199       C  0.33747251  0.26405067  0.55295147     0.12300
C2200       C  0.27967217  0.26197694  0.56948285     0.62900
H2201       H  0.25040448  0.24043969  0.52851132     0.12300
C2202       C  0.31223959  0.24620762  0.45811002     0.55000
H2203       H  0.34264644  0.26310377  0.50011352     0.08100
C2204       C  0.35287864  0.24181646  0.56130847    -0.05700
C2205       C  0.37194448  0.24534798  0.58163900    -0.06500
C2206       C  0.37525817  0.26990178  0.59478609    -0.16100
C2207       C  0.36097043  0.29258122  0.58524929    -0.01600
C2208       C  0.34243385  0.28921942  0.56418483    -0.09200
C2209       C  0.34846172  0.21417658  0.54949142     0.65100
H2210       H  0.38342523  0.22836731  0.58847818     0.10500
C2211       C  0.36537153  0.32024842  0.59684701     0.63500
H2212       H  0.33090710  0.30606240  0.55696533     0.07900
F2213       F  0.33530356  0.26062648  0.45296665    -0.19600
F2214       F  0.29211609  0.25623027  0.44195175    -0.15800
F2215       F  0.31701065  0.21984382  0.45153493    -0.19300
F2216       F  0.28373356  0.28866335  0.57526751    -0.22700
F2217       F  0.29410304  0.24654836  0.58730596    -0.24100
F2218       F  0.25274007  0.25651836  0.57302664    -0.18100
F2219       F  0.35398582  0.33986132  0.58099500    -0.20600
F2220       F  0.39251268  0.32545099  0.59869699    -0.21800
F2221       F  0.35391234  0.32197138  0.62189900    -0.19000
F2222       F  0.36457932  0.19511223  0.56143193    -0.19100
F2223       F  0.35429983  0.21443134  0.52252770    -0.22900
F2224       F  0.32210855  0.20650975  0.55302338    -0.24500
C2225       C  0.08590316  0.21031139  0.40761836    -0.11300
C2226       C  0.07647549  0.18691722  0.39560103     0.11300
C2227       C  0.09342670  0.16427188  0.39410230    -0.03100
C2228       C  0.12023862  0.16677848  0.40242542    -0.05800
C2229       C  0.13015556  0.19074419  0.41311955    -0.16600
C2230       C  0.11241100  0.21271521  0.41661666     0.02300
C2231       C  0.05074582  0.18919850  0.38094891     0.12300
C2232       C  0.08429104  0.13715097  0.38422273     0.62900
H2233       H  0.13366028  0.14988957  0.40028782     0.12300
C2234       C  0.12157054  0.23930267  0.42807798     0.55000
H2235       H  0.07249983  0.22729505  0.40859380     0.08100
C2236       C  0.02597668  0.19383086  0.39389138    -0.05700
C2237       C  0.00417551  0.20306152  0.37867511    -0.06500
C2238       C  0.00614712  0.20717667  0.35098432    -0.16100
C2239       C  0.03071827  0.20126162  0.33784491    -0.01600
C2240       C  0.05250511  0.19224182  0.35320309    -0.09200
C2241       C  0.02156532  0.18969336  0.42357052     0.65100
H2242       H  0.98537419  0.20729727  0.38864219     0.10500
C2243       C  0.03474912  0.20594090  0.30808878     0.63500
H2244       H  0.07175495  0.18881794  0.34384449     0.07900
F2245       F  0.12923269  0.23607933  0.45441395    -0.19600
F2246       F  0.10150552  0.25837824  0.42744308    -0.15800
F2247       F  0.14281292  0.24897852  0.41337217    -0.19300
F2248       F  0.09878418  0.13020479  0.36176291    -0.22700
F2249       F  0.05734143  0.13638654  0.37798171    -0.24100
F2250       F  0.08894567  0.11837392  0.40396130    -0.18100
F2251       F  0.02775133  0.23186177  0.30156401    -0.20600
F2252       F  0.01922068  0.18825678  0.29361852    -0.21800
F2253       F  0.06112829  0.20218162  0.30047661    -0.19000
F2254       F  0.99966946  0.17320796  0.42729867    -0.19100
F2255       F  0.01646626  0.21406142  0.43550425    -0.22900
F2256       F  0.04321585  0.17799503  0.43620464    -0.24500
C2257       C  0.17080672  0.12802222  0.53996084    -0.11300
C2258       C  0.19104638  0.11666420  0.55566362     0.11300
C2259       C  0.21764935  0.11619992  0.54599874    -0.03100
C2260       C  0.22364388  0.13002757  0.52229236    -0.05800
C2261       C  0.20393386  0.14423555  0.50810110    -0.16600
C2262       C  0.17670678  0.14198868  0.51625986     0.02300
C2263       C  0.18471962  0.10912441  0.58370858     0.12300
C2264       C  0.23972019  0.10186222  0.56117449     0.62900
H2265       H  0.24417991  0.13102077  0.51548668     0.12300
C2266       C  0.15385516  0.15467162  0.50070167     0.55000
H2267       H  0.15047725  0.12747085  0.54744931     0.08100
C2268       C  0.18354883  0.12880773  0.60396195    -0.05700
C2269       C  0.18090520  0.12058925  0.63061710    -0.06500
C2270       C  0.17934652  0.09349407  0.63778951    -0.16100
C2271       C  0.17877918  0.07385312  0.61733130    -0.01600
C2272       C  0.18145827  0.08211642  0.59047337    -0.09200
C2273       C  0.18569691  0.15843156  0.59752365     0.65100
H2274       H  0.18098492  0.13545796  0.64630580     0.10500
C2275       C  0.17489287  0.04448422  0.62363052     0.63500
H2276       H  0.18180677  0.06749084  0.57455951     0.07900
F2277       F  0.15370527  0.18196601  0.50484556    -0.19600
F2278       F  0.12925706  0.14475731  0.50868135    -0.15800
F2279       F  0.15662580  0.14939000  0.47372454    -0.19300
F2280       F  0.23364404  0.07500074  0.56300674    -0.22700
F2281       F  0.24217679  0.11237944  0.58658406    -0.24100
F2282       F  0.26425148  0.10420112  0.54854982    -0.18100
F2283       F  0.17038122  0.02962687  0.60075154    -0.20600
F2284       F  0.15300479  0.04131281  0.64022984    -0.21800
F2285       F  0.19747805  0.03443491  0.63603308    -0.19000
F2286       F  0.18528488  0.17405110  0.62032270    -0.19100
F2287       F  0.16437941  0.16614333  0.58168258    -0.22900
F2288       F  0.20936970  0.16353774  0.58418287    -0.24500
C2289       C  0.19655043  0.32913119  0.39423509    -0.11300
C2290       C  0.18450432  0.32810260  0.36893702     0.11300
C2291       C  0.17636361  0.30332244  0.35815151    -0.03100
C2292       C  0.18145625  0.28013989  0.37282638    -0.05800
C2293       C  0.19494027  0.28064168  0.39750722    -0.16600
C2294       C  0.20174114  0.30567568  0.40903244     0.02300
C2295       C  0.18383950  0.35236336  0.35217058     0.12300
C2296       C  0.16348143  0.30111722  0.33061862     0.62900
H2297       H  0.17549100  0.26107078  0.36456373     0.12300
C2298       C  0.21495008  0.30776830  0.43625327     0.55000
H2299       H  0.20258539  0.34844334  0.40187536     0.08100
C2300       C  0.16116628  0.36916209  0.35062062    -0.05700
C2301       C  0.15894195  0.38663189  0.32867147    -0.06500
C2302       C  0.17885194  0.38760635  0.30885501    -0.16100
C2303       C  0.20302023  0.37324581  0.31257269    -0.01600
C2304       C  0.20511840  0.35587586  0.33440208    -0.09200
C2305       C  0.13961399  0.36836108  0.37194693     0.65100
H2306       H  0.14106612  0.39862264  0.32612959     0.10500
C2307       C  0.22628343  0.37558085  0.29330958     0.63500
H2308       H  0.22258022  0.34318882  0.33653078     0.07900
F2309       F  0.19772307  0.29820474  0.45562371    -0.19600
F2310       F  0.22121047  0.33391063  0.44270462    -0.15800
F2311       F  0.23841348  0.29309206  0.43658160    -0.19300
F2312       F  0.18136351  0.30924382  0.31121887    -0.22700
F2313       F  0.14085315  0.31691356  0.32925447    -0.24100
F2314       F  0.15588839  0.27518563  0.32477147    -0.18100
F2315       F  0.24934780  0.36426888  0.30368258    -0.20600
F2316       F  0.23154738  0.40219918  0.28811912    -0.21800
F2317       F  0.22016542  0.36252724  0.26977348    -0.19000
F2318       F  0.11945639  0.38666453  0.36691036    -0.19100
F2319       F  0.15088658  0.37439308  0.39643977    -0.22900
F2320       F  0.12821739  0.34326496  0.37331057    -0.24500
C2321       C  0.19258185  0.64916944  0.72585578    -0.11300
C2322       C  0.17564967  0.63746166  0.70686114     0.11300
C2323       C  0.18279517  0.61268321  0.69532178    -0.03100
C2324       C  0.20775461  0.60138244  0.70197164    -0.05800
C2325       C  0.22581623  0.61416531  0.71942134    -0.16600
C2326       C  0.21742545  0.63787950  0.73273870     0.02300
C2327       C  0.15381428  0.65450230  0.69605838     0.12300
C2328       C  0.16441678  0.59843820  0.67575930     0.62900
H2329       H  0.21391502  0.58305246  0.69233149     0.12300
C2330       C  0.23451346  0.65201549  0.75354854     0.55000
H2331       H  0.18683855  0.66832242  0.73412872     0.08100
C2332       C  0.13009664  0.66016767  0.71052427    -0.05700
C2333       C  0.11344172  0.68100698  0.70149833    -0.06500
C2334       C  0.11976548  0.69602979  0.67876827    -0.16100
C2335       C  0.14269745  0.68950691  0.66361985    -0.01600
C2336       C  0.15948749  0.66890039  0.67267692    -0.09200
C2337       C  0.12266406  0.64463001  0.73548574     0.65100
H2338       H  0.09573885  0.68652757  0.71285277     0.10500
C2339       C  0.14947385  0.70462654  0.63825887     0.63500
H2340       H  0.17797235  0.66456887  0.66213034     0.07900
F2341       F  0.21981795  0.67063754  0.76780183    -0.19600
F2342       F  0.25535972  0.66534084  0.74122476    -0.15800
F2343       F  0.24459760  0.63372469  0.77165759    -0.19300
F2344       F  0.15965460  0.61428142  0.65368180    -0.22700
F2345       F  0.14035146  0.59270502  0.68801458    -0.24100
F2346       F  0.17534482  0.57461769  0.66692293    -0.18100
F2347       F  0.17198988  0.69438147  0.62582309    -0.20600
F2348       F  0.15423489  0.73117751  0.64412085    -0.21800
F2349       F  0.12827100  0.70287134  0.62059171    -0.19000
F2350       F  0.09830996  0.65283902  0.74582184    -0.19100
F2351       F  0.14191094  0.64811773  0.75499712    -0.22900
F2352       F  0.12067527  0.61779111  0.72953829    -0.24500
C2353       C  0.18895693  0.74178158  0.53700948    -0.11300
C2354       C  0.16503051  0.75164531  0.52618715     0.11300
C2355       C  0.16210182  0.75386205  0.49825191    -0.03100
C2356       C  0.18205429  0.74274457  0.48181356    -0.05800
C2357       C  0.20503206  0.73061960  0.49265966    -0.16600
C2358       C  0.20919444  0.73118100  0.52064555     0.02300
C2359       C  0.14257062  0.75671798  0.54479054     0.12300
C2360       C  0.13798313  0.76777437  0.48608515     0.62900
H2361       H  0.17958600  0.74287778  0.46052245     0.12300
C2362       C  0.23405707  0.71919810  0.53330018     0.55000
H2363       H  0.19092376  0.74108554  0.55850717     0.08100
C2364       C  0.12603784  0.73552781  0.55364587    -0.05700
C2365       C  0.10744822  0.74053237  0.57402930    -0.06500
C2366       C  0.10596634  0.76547896  0.58659836    -0.16100
C2367       C  0.12119339  0.78716495  0.57650912    -0.01600
C2368       C  0.13935556  0.78234548  0.55556228    -0.09200
C2369       C  0.12922236  0.70731996  0.54284814     0.65100
H2370       H  0.09560507  0.72426382  0.58197892     0.10500
C2371       C  0.11835068  0.81517886  0.58777714     0.63500
H2372       H  0.15214827  0.79824070  0.54835172     0.07900
F2373       F  0.23646027  0.69277456  0.52583570    -0.19600
F2374       F  0.23315351  0.72019010  0.56090812    -0.15800
F2375       F  0.25644704  0.73312617  0.52501842    -0.19300
F2376       F  0.13703983  0.79389771  0.49496075    -0.22700
F2377       F  0.11463786  0.75497193  0.49348786    -0.24100
F2378       F  0.13919373  0.76816873  0.45849087    -0.18100
F2379       F  0.13015601  0.81671001  0.61269606    -0.20600
F2380       F  0.09152227  0.82173550  0.58986729    -0.21800
F2381       F  0.13047005  0.83394933  0.57148703    -0.19000
F2382       F  0.11020788  0.69011930  0.55322601    -0.19100
F2383       F  0.15420967  0.69749181  0.54952401    -0.22900
F2384       F  0.12653649  0.70727226  0.51538966    -0.24500
C2385       C  0.07389217  0.91232415  0.68622095    -0.11300
C2386       C  0.10096045  0.91873813  0.68270905     0.11300
C2387       C  0.11882010  0.89916019  0.67293215    -0.03100
C2388       C  0.10924753  0.87312911  0.66871993    -0.05800
C2389       C  0.08258015  0.86581952  0.67441323    -0.16600
C2390       C  0.06414895  0.88624683  0.68184661     0.02300
C2391       C  0.11079782  0.94503684  0.69231156     0.12300
C2392       C  0.14841048  0.90508688  0.66896237     0.62900
H2393       H  0.12331917  0.85784591  0.66268854     0.12300
C2394       C  0.03443261  0.88096666  0.68547040     0.55000
H2395       H  0.06061343  0.92773260  0.69363806     0.08100
C2396       C  0.10985849  0.96846476  0.67651970    -0.05700
C2397       C  0.12210680  0.99185345  0.68634147    -0.06500
C2398       C  0.13449661  0.99245365  0.71150887    -0.16100
C2399       C  0.13445280  0.96921564  0.72770967    -0.01600
C2400       C  0.12233134  0.94591361  0.71781121    -0.09200
C2401       C  0.09613744  0.96863533  0.64946812     0.65100
H2402       H  0.12228393  0.00985690  0.67438012     0.10500
C2403       C  0.14843486  0.96852824  0.75467304     0.63500
H2404       H  0.12247930  0.92776732  0.72958191     0.07900
F2405       F  0.01992110  0.90449132  0.68678556    -0.19600
F2406       F  0.03010383  0.86705466  0.70891897    -0.15800
F2407       F  0.02474151  0.86643966  0.66404813    -0.19300
F2408       F  0.16075532  0.90762638  0.69354109    -0.22700
F2409       F  0.15176997  0.92849865  0.65476010    -0.24100
F2410       F  0.16113067  0.88491047  0.65496017    -0.18100
F2411       F  0.13684679  0.98684384  0.77176113    -0.20600
F2412       F  0.17523091  0.97459668  0.75142236    -0.21800
F2413       F  0.14675585  0.94363758  0.76659914    -0.19000
F2414       F  0.09745141  0.99349337  0.63744809    -0.19100
F2415       F  0.06945353  0.96200791  0.65246866    -0.22900
F2416       F  0.10813593  0.95033053  0.63265686    -0.24500
C2417       C  0.98282482  0.67081222  0.72893213    -0.11300
C2418       C  0.95682296  0.68003623  0.73380361     0.11300
C2419       C  0.95106842  0.70757540  0.73113276    -0.03100
C2420       C  0.97098807  0.72460677  0.72083393    -0.05800
C2421       C  0.99644230  0.71498215  0.71364010    -0.16600
C2422       C  0.00289915  0.68783745  0.71898440     0.02300
C2423       C  0.93545311  0.66004730  0.73910005     0.12300
C2424       C  0.92391546  0.71875337  0.73893027     0.62900
H2425       H  0.96644096  0.74546649  0.71737631     0.12300
C2426       C  0.03091937  0.67690159  0.71490331     0.55000
H2427       H  0.98693147  0.64977359  0.73186698     0.08100
C2428       C  0.92255510  0.64663479  0.71781062    -0.05700
C2429       C  0.90140392  0.62918230  0.72366638    -0.06500
C2430       C  0.89252785  0.62479899  0.74993706    -0.16100
C2431       C  0.90626176  0.63730844  0.77140136    -0.01600
C2432       C  0.92774459  0.65468998  0.76552361    -0.09200
C2433       C  0.93069798  0.65119126  0.68889896     0.65100
H2434       H  0.89081441  0.61957333  0.70742011     0.10500
C2435       C  0.89861799  0.63219484  0.80027518     0.63500
H2436       H  0.93827924  0.66481937  0.78148857     0.07900
F2437       F  0.03402071  0.65198697  0.72649156    -0.19600
F2438       F  0.04922659  0.69396967  0.72660062    -0.15800
F2439       F  0.03637311  0.67442981  0.68796110    -0.19300
F2440       F  0.91951148  0.71418652  0.76579797    -0.22700
F2441       F  0.90388667  0.70654802  0.72429589    -0.24100
F2442       F  0.92233304  0.74599434  0.73452090    -0.18100
F2443       F  0.89656314  0.60501600  0.80477034    -0.20600
F2444       F  0.87439426  0.64429741  0.80589385    -0.21800
F2445       F  0.91754183  0.64228628  0.81778514    -0.19000
F2446       F  0.91510200  0.63657495  0.67132000    -0.19100
F2447       F  0.95703585  0.64358146  0.68525035    -0.22900
F2448       F  0.92797953  0.67788300  0.68241804    -0.24500
C2449       C  0.10687744  0.81336194  0.80023538    -0.11300
C2450       C  0.12957589  0.79742815  0.80450196     0.11300
C2451       C  0.13557294  0.77632022  0.78671560    -0.03100
C2452       C  0.11920014  0.77277347  0.76425066    -0.05800
C2453       C  0.09752634  0.78980332  0.75893736    -0.16600
C2454       C  0.09097034  0.81035171  0.77722716     0.02300
C2455       C  0.14791644  0.80442616  0.82661372     0.12300
C2456       C  0.15953810  0.75808262  0.79104945     0.62900
H2457       H  0.12381630  0.75720599  0.74995039     0.12300
C2458       C  0.06855325  0.83004325  0.77161051     0.55000
H2459       H  0.10260673  0.82911176  0.81442582     0.08100
C2460       C  0.16703531  0.82514842  0.82390184    -0.05700
C2461       C  0.18578511  0.82880492  0.84438912    -0.06500
C2462       C  0.18584735  0.81263283  0.86717281    -0.16100
C2463       C  0.16616041  0.79269184  0.87045913    -0.01600
C2464       C  0.14717474  0.78904082  0.85002351    -0.09200
C2465       C  0.16825577  0.84277794  0.79920618     0.65100
H2466       H  0.20107894  0.84404737  0.84256548     0.10500
C2467       C  0.16572720  0.77514581  0.89506494     0.63500
H2468       H  0.13207276  0.77362560  0.85175028     0.07900
F2469       F  0.06687816  0.84956714  0.79110996    -0.19600
F2470       F  0.04433802  0.81673167  0.77074019    -0.15800
F2471       F  0.07297619  0.84257815  0.74739098    -0.19300
F2472       F  0.15612261  0.74364173  0.81431017    -0.22700
F2473       F  0.18274783  0.77299571  0.79297177    -0.24100
F2474       F  0.16271971  0.74012891  0.77026592    -0.18100
F2475       F  0.16186346  0.79087940  0.91736504    -0.20600
F2476       F  0.18980200  0.76168330  0.89743147    -0.21800
F2477       F  0.14533159  0.75646031  0.89403464    -0.19000
F2478       F  0.18850375  0.86158705  0.80096199    -0.19100
F2479       F  0.14437875  0.85635426  0.79606513    -0.22900
F2480       F  0.17291704  0.82729450  0.77684368    -0.24500
C2481       C  0.85758501  0.05614166  0.30739539    -0.11300
C2482       C  0.87827631  0.06448953  0.29056402     0.11300
C2483       C  0.88821752  0.04695074  0.27087160    -0.03100
C2484       C  0.87474709  0.02269738  0.26645340    -0.05800
C2485       C  0.85190272  0.01541207  0.28130351    -0.16600
C2486       C  0.84417193  0.03177093  0.30333484     0.02300
C2487       C  0.88707850  0.09272539  0.29215507     0.12300
C2488       C  0.91251034  0.05426100  0.25420027     0.62900
H2489       H  0.88133579  0.00987914  0.25035866     0.12300
C2490       C  0.82171071  0.02430324  0.32239773     0.55000
H2491       H  0.85096221  0.06973323  0.32286572     0.08100
C2492       C  0.87217051  0.11319140  0.27948108    -0.05700
C2493       C  0.88131222  0.13955023  0.28146491    -0.06500
C2494       C  0.90457402  0.14608475  0.29570130    -0.16100
C2495       C  0.91951116  0.12574011  0.30847807    -0.01600
C2496       C  0.91033660  0.09916558  0.30657305    -0.09200
C2497       C  0.84649312  0.10732923  0.26419627     0.65100
H2498       H  0.87014505  0.15552143  0.27200408     0.10500
C2499       C  0.94434915  0.13221657  0.32466334     0.63500
H2500       H  0.92114605  0.08319018  0.31638954     0.07900
F2501       F  0.79719101  0.02758177  0.30996741    -0.19600
F2502       F  0.82182310  0.04017527  0.34503999    -0.15800
F2503       F  0.82466086  0.99809632  0.33063559    -0.19300
F2504       F  0.93429145  0.05831432  0.27076429    -0.22700
F2505       F  0.90755017  0.07736864  0.23992077    -0.24100
F2506       F  0.91912682  0.03429347  0.23627303    -0.18100
F2507       F  0.95499003  0.10969239  0.33669530    -0.20600
F2508       F  0.93802563  0.15039217  0.34447667    -0.21800
F2509       F  0.96374037  0.14303127  0.30822947    -0.19000
F2510       F  0.83622689  0.12997952  0.25205921    -0.19100
F2511       F  0.82727209  0.09762749  0.28148890    -0.22900
F2512       F  0.85126906  0.08860583  0.24449166    -0.24500
C2513       C  0.78583231  0.86100693  0.14384182    -0.11300
C2514       C  0.79437171  0.83471665  0.14836385     0.11300
C2515       C  0.81050950  0.82875423  0.17081967    -0.03100
C2516       C  0.81586699  0.84915805  0.18920448    -0.05800
C2517       C  0.80629828  0.87529259  0.18552688    -0.16600
C2518       C  0.79171118  0.88166973  0.16204322     0.02300
C2519       C  0.78653760  0.81363056  0.12916756     0.12300
C2520       C  0.82203086  0.80098082  0.17537562     0.62900
H2521       H  0.82754759  0.84478591  0.20692039     0.12300
C2522       C  0.78195132  0.90981667  0.15639569     0.55000
H2523       H  0.77424803  0.86508170  0.12600474     0.08100
C2524       C  0.76226003  0.79936295  0.13170554    -0.05700
C2525       C  0.75820551  0.77678802  0.11553142    -0.06500
C2526       C  0.77779016  0.76792292  0.09741004    -0.16100
C2527       C  0.80140122  0.78339967  0.09382645    -0.01600
C2528       C  0.80498277  0.80641448  0.10948035    -0.09200
C2529       C  0.74121623  0.80743885  0.15204239     0.65100
H2530       H  0.74014212  0.76506234  0.11785162     0.10500
C2531       C  0.82378036  0.77472699  0.07534842     0.63500
H2532       H  0.82313386  0.81811039  0.10776433     0.07900
F2533       F  0.76670768  0.91103357  0.13331928    -0.19600
F2534       F  0.80367106  0.92660581  0.15318055    -0.15800
F2535       F  0.76635330  0.91887620  0.17730785    -0.19300
F2536       F  0.83918251  0.79446583  0.15473711    -0.22700
F2537       F  0.80168588  0.78232672  0.17649453    -0.24100
F2538       F  0.83637203  0.79943337  0.19900654    -0.18100
F2539       F  0.81457923  0.77407364  0.04931106    -0.20600
F2540       F  0.83270534  0.74973754  0.08296695    -0.21800
F2541       F  0.84543589  0.79195732  0.07621143    -0.19000
F2542       F  0.71891023  0.79106748  0.15094078    -0.19100
F2543       F  0.73296689  0.83332557  0.14715679    -0.22900
F2544       F  0.75173136  0.80595157  0.17754281    -0.24500
C2545       C  0.93593547  0.88073163  0.25584297    -0.11300
C2546       C  0.93244539  0.85319193  0.25202033     0.11300
C2547       C  0.90676349  0.84169924  0.25523107    -0.03100
C2548       C  0.88505747  0.85858105  0.26073873    -0.05800
C2549       C  0.88800666  0.88644046  0.26164830    -0.16600
C2550       C  0.91389546  0.89782714  0.25978410     0.02300
C2551       C  0.95500174  0.83737105  0.24106302     0.12300
C2552       C  0.90197732  0.81198594  0.25116517     0.62900
H2553       H  0.86510854  0.85024200  0.26220562     0.12300
C2554       C  0.91820398  0.92778729  0.26099555     0.55000
H2555       H  0.95586002  0.88895779  0.25364868     0.08100
C2556       C  0.96126185  0.83833448  0.21353400    -0.05700
C2557       C  0.98003025  0.82018257  0.20344947    -0.06500
C2558       C  0.99271815  0.80119460  0.21980553    -0.16100
C2559       C  0.98763859  0.80131192  0.24768321    -0.01600
C2560       C  0.96880369  0.81965289  0.25787055    -0.09200
C2561       C  0.94799363  0.85824058  0.19474264     0.65100
H2562       H  0.98458159  0.82038282  0.18232819     0.10500
C2563       C  0.00212347  0.78258001  0.26664203     0.63500
H2564       H  0.96399593  0.81973126  0.27894825     0.07900
F2565       F  0.90917793  0.93947689  0.23764863    -0.19600
F2566       F  0.94501628  0.93411677  0.26397754    -0.15800
F2567       F  0.90443887  0.93844402  0.28245232    -0.19300
F2568       F  0.91684367  0.79749558  0.26938549    -0.22700
F2569       F  0.90935970  0.80469735  0.22557157    -0.24100
F2570       F  0.87532814  0.80521209  0.25459954    -0.18100
F2571       F  0.02944761  0.78400990  0.26236446    -0.20600
F2572       F  0.99349043  0.75668325  0.26255275    -0.21800
F2573       F  0.99735208  0.78909194  0.29308375    -0.19000
F2574       F  0.95575074  0.85442679  0.16848168    -0.19100
F2575       F  0.95509103  0.88391903  0.20193077    -0.22900
F2576       F  0.92045845  0.85569396  0.19589861    -0.24500
C2577       C  0.77482919  0.04091352  0.16760425    -0.11300
C2578       C  0.74732871  0.03947415  0.16247525     0.11300
C2579       C  0.73205133  0.01831913  0.17320126    -0.03100
C2580       C  0.74468075  0.00029885  0.19076672    -0.05800
C2581       C  0.77208479  0.00243666  0.19693781    -0.16600
C2582       C  0.78761192  0.02290822  0.18485745     0.02300
C2583       C  0.73568414  0.06109385  0.14600040     0.12300
C2584       C  0.70284644  0.01461203  0.16570361     0.62900
H2585       H  0.73326544  0.98427622  0.19976840     0.12300
C2586       C  0.81724447  0.02667288  0.19084091     0.55000
H2587       H  0.78608578  0.05694895  0.15840842     0.08100
C2588       C  0.73044279  0.08658453  0.15704490    -0.05700
C2589       C  0.72519492  0.10791608  0.13964908    -0.06500
C2590       C  0.72623952  0.10482316  0.11180035    -0.16100
C2591       C  0.73012136  0.07901378  0.10081481    -0.01600
C2592       C  0.73466206  0.05744858  0.11826577    -0.09200
C2593       C  0.73163097  0.09156985  0.18700477     0.65100
H2594       H  0.72217703  0.12773857  0.14774096     0.10500
C2595       C  0.73049288  0.07426399  0.07093917     0.63500
H2596       H  0.73927469  0.03787194  0.11030357     0.07900
F2597       F  0.82724825  0.04982412  0.17949799    -0.19600
F2598       F  0.83168738  0.00546044  0.18062175    -0.15800
F2599       F  0.82125687  0.02831362  0.21812654    -0.19300
F2600       F  0.70077532  0.01042536  0.13849430    -0.22700
F2601       F  0.68826285  0.03706090  0.17243149    -0.24100
F2602       F  0.69159721  0.99289790  0.17860094    -0.18100
F2603       F  0.75425696  0.08367839  0.06043423    -0.20600
F2604       F  0.70915666  0.08725610  0.05900491    -0.21800
F2605       F  0.72848120  0.04736460  0.06487517    -0.19000
F2606       F  0.72555713  0.11778725  0.19334384    -0.19100
F2607       F  0.75702253  0.08626641  0.19661564    -0.22900
F2608       F  0.71347830  0.07530173  0.19993283    -0.24500
C2609       C  0.65068053  0.84601331  0.30605712    -0.11300
C2610       C  0.64580581  0.85829238  0.28132967     0.11300
C2611       C  0.62458060  0.84912121  0.26494602    -0.03100
C2612       C  0.60904776  0.82746031  0.27394188    -0.05800
C2613       C  0.61469784  0.81465582  0.29820969    -0.16600
C2614       C  0.63545284  0.82420717  0.31481787     0.02300
C2615       C  0.66666872  0.87687498  0.27162877     0.12300
C2616       C  0.61869723  0.86179911  0.23800912     0.62900
H2617       H  0.59304680  0.81963540  0.26161850     0.12300
C2618       C  0.64182942  0.81094057  0.34134486     0.55000
H2619       H  0.66749478  0.85288177  0.31788855     0.08100
C2620       C  0.67064806  0.90248995  0.28289877    -0.05700
C2621       C  0.69551042  0.91514301  0.27904060    -0.06500
C2622       C  0.71600014  0.90297472  0.26412922    -0.16100
C2623       C  0.71036358  0.87910556  0.24984621    -0.01600
C2624       C  0.68608865  0.86604852  0.25467130    -0.09200
C2625       C  0.64899559  0.91607498  0.29927302     0.65100
H2626       H  0.69966168  0.93384525  0.28906924     0.10500
C2627       C  0.72991486  0.86658476  0.23025987     0.63500
H2628       H  0.68283181  0.84629208  0.24643924     0.07900
F2629       F  0.66164758  0.82443340  0.35519320    -0.19600
F2630       F  0.65057289  0.78512776  0.33696226    -0.15800
F2631       F  0.61914127  0.81034235  0.35714519    -0.19300
F2632       F  0.64004798  0.85812361  0.22088394    -0.22700
F2633       F  0.61425371  0.88883246  0.24116320    -0.24100
F2634       F  0.59622160  0.85080225  0.22614110    -0.18100
F2635       F  0.74911524  0.85208679  0.24390447    -0.20600
F2636       F  0.74214379  0.88616886  0.21512679    -0.21800
F2637       F  0.71694697  0.84947581  0.21280093    -0.19000
F2638       F  0.65670809  0.94132698  0.30747893    -0.19100
F2639       F  0.64316739  0.90121400  0.32176248    -0.22900
F2640       F  0.62607710  0.91870603  0.28403607    -0.24500
C2641       C  0.89200519  0.78687162  0.57601214    -0.11300
C2642       C  0.90274458  0.80600851  0.59338065     0.11300
C2643       C  0.88770037  0.82907248  0.59975618    -0.03100
C2644       C  0.86130353  0.83112955  0.59013987    -0.05800
C2645       C  0.84974008  0.81103245  0.57430088    -0.16600
C2646       C  0.86552286  0.78876430  0.56652710     0.02300
C2647       C  0.92888307  0.80022668  0.60632571     0.12300
C2648       C  0.89931524  0.85103642  0.61715971     0.62900
H2649       H  0.84903605  0.84803017  0.59581106     0.12300
C2650       C  0.85401543  0.76621595  0.54985374     0.55000
H2651       H  0.90418318  0.76967077  0.57109780     0.08100
C2652       C  0.93051307  0.78377380  0.62931721    -0.05700
C2653       C  0.95565623  0.77960903  0.64115813    -0.06500
C2654       C  0.97898429  0.79078941  0.63046070    -0.16100
C2655       C  0.97757846  0.80665720  0.60718143    -0.01600
C2656       C  0.95232482  0.81118972  0.59539682    -0.09200
C2657       C  0.90590256  0.77033344  0.64108315     0.65100
H2658       H  0.95742742  0.76717239  0.65879605     0.10500
C2659       C  0.00263176  0.81868091  0.59513054     0.63500
H2660       H  0.95062395  0.82338449  0.57760827     0.07900
F2661       F  0.83165673  0.75585920  0.56232396    -0.19600
F2662       F  0.87216333  0.74560064  0.54641091    -0.15800
F2663       F  0.84700799  0.77570635  0.52488416    -0.19300
F2664       F  0.92169729  0.86168960  0.60494697    -0.22700
F2665       F  0.90653418  0.84086827  0.64180194    -0.24100
F2666       F  0.88117141  0.87152890  0.62128404    -0.18100
F2667       F  0.02061330  0.79863228  0.58887897    -0.20600
F2668       F  0.01432208  0.83588609  0.61330468    -0.21800
F2669       F  0.99707690  0.83284466  0.57203472    -0.19000
F2670       F  0.91193455  0.75619803  0.66409139    -0.19100
F2671       F  0.89527410  0.75261068  0.62277638    -0.22900
F2672       F  0.88677857  0.78922986  0.64745163    -0.24500
C2673       C  0.78265687  0.90736967  0.45540919    -0.11300
C2674       C  0.77825779  0.89371693  0.43134856     0.11300
C2675       C  0.76931561  0.86688873  0.43183337    -0.03100
C2676       C  0.76569854  0.85438067  0.45666108    -0.05800
C2677       C  0.76977512  0.86802508  0.48081271    -0.16600
C2678       C  0.77786569  0.89515786  0.48032389     0.02300
C2679       C  0.78396038  0.90747434  0.40573399     0.12300
C2680       C  0.76333656  0.85160576  0.40624511     0.62900
H2681       H  0.75899997  0.83382443  0.45743493     0.12300
C2682       C  0.78170189  0.91102859  0.50584977     0.55000
H2683       H  0.78959332  0.92782575  0.45444418     0.08100
C2684       C  0.76493568  0.92411396  0.39297419    -0.05700
C2685       C  0.76980745  0.93223667  0.36648382    -0.06500
C2686       C  0.79300671  0.92421713  0.35281832    -0.16100
C2687       C  0.81332245  0.91016184  0.36676942    -0.01600
C2688       C  0.80836981  0.90198609  0.39313197    -0.09200
C2689       C  0.73939086  0.93256220  0.40705842     0.65100
H2690       H  0.75476738  0.94351615  0.35571731     0.10500
C2691       C  0.83979918  0.90294483  0.35376483     0.63500
H2692       H  0.82295833  0.88983837  0.40359354     0.07900
F2693       F  0.75731606  0.91448296  0.51842025    -0.19600
F2694       F  0.79228280  0.93608058  0.50088858    -0.15800
F2695       F  0.79901037  0.89762649  0.52275970    -0.19300
F2696       F  0.78647800  0.84858819  0.39146012    -0.22700
F2697       F  0.74463687  0.86529379  0.39116437    -0.24100
F2698       F  0.75314512  0.82642161  0.41139449    -0.18100
F2699       F  0.85905421  0.89681092  0.37270468    -0.20600
F2700       F  0.84922702  0.92418446  0.33880915    -0.21800
F2701       F  0.83645636  0.88096478  0.33740763    -0.19000
F2702       F  0.72361411  0.94872725  0.39105960    -0.19100
F2703       F  0.74572474  0.94672264  0.42989157    -0.22900
F2704       F  0.72452542  0.91037309  0.41405061    -0.24500
C2705       C  0.66224698  0.81845569  0.66898208    -0.11300
C2706       C  0.63948619  0.80568259  0.65885860     0.11300
C2707       C  0.63638636  0.80256767  0.63096971    -0.03100
C2708       C  0.65794887  0.80966414  0.61423373    -0.05800
C2709       C  0.68171534  0.82062760  0.62465930    -0.16600
C2710       C  0.68332812  0.82644679  0.65237988     0.02300
C2711       C  0.61938649  0.79686984  0.67873996     0.12300
C2712       C  0.61039715  0.79233289  0.61907071     0.62900
H2713       H  0.65658537  0.80623775  0.59292672     0.12300
C2714       C  0.70682116  0.84141363  0.66463218     0.55000
H2715       H  0.66357413  0.82164402  0.69034877     0.08100
C2716       C  0.62351429  0.77352861  0.69416909    -0.05700
C2717       C  0.60899984  0.77045245  0.71800705    -0.06500
C2718       C  0.59101866  0.79007715  0.72698751    -0.16100
C2719       C  0.58530381  0.81233755  0.71036276    -0.01600
C2720       C  0.59970251  0.81528408  0.68638053    -0.09200
C2721       C  0.64421829  0.75268640  0.68626466     0.65100
H2722       H  0.61283814  0.75340318  0.73075550     0.10500
C2723       C  0.56573081  0.83394839  0.71873734     0.63500
H2724       H  0.59722007  0.83309420  0.67437690     0.07900
F2725       F  0.72879761  0.82472756  0.66650664    -0.19600
F2726       F  0.70092498  0.85055018  0.69005405    -0.15800
F2727       F  0.71317829  0.86340661  0.64915617    -0.19300
F2728       F  0.58963884  0.80914641  0.62617954    -0.22700
F2729       F  0.60494289  0.76697827  0.62841185    -0.24100
F2730       F  0.61145776  0.79130760  0.59146293    -0.18100
F2731       F  0.56421552  0.85436439  0.70015185    -0.20600
F2732       F  0.57376475  0.84490564  0.74277067    -0.21800
F2733       F  0.54041504  0.82313681  0.72143358    -0.19000
F2734       F  0.64415380  0.73105585  0.70348657    -0.19100
F2735       F  0.66957704  0.76369977  0.68659372    -0.22900
F2736       F  0.63883443  0.74330906  0.66089308    -0.24500
C2737       C  0.77816741  0.93560722  0.64389513    -0.11300
C2738       C  0.75353552  0.94885706  0.64639750     0.11300
C2739       C  0.73179318  0.94144073  0.62982568    -0.03100
C2740       C  0.73498709  0.91979323  0.61245991    -0.05800
C2741       C  0.75873536  0.90478205  0.61158125    -0.16600
C2742       C  0.78118683  0.91337350  0.62683622     0.02300
C2743       C  0.74979121  0.96904252  0.66778330     0.12300
C2744       C  0.70479636  0.95550465  0.63126837     0.62900
H2745       H  0.71807859  0.91341040  0.60054843     0.12300
C2746       C  0.80802242  0.89913542  0.62567322     0.55000
H2747       H  0.79466152  0.94204817  0.65636853     0.08100
C2748       C  0.74397198  0.96140038  0.69437790    -0.05700
C2749       C  0.73290521  0.98051948  0.71174620    -0.06500
C2750       C  0.72680947  0.00647989  0.70301273    -0.16100
C2751       C  0.73562367  0.01480261  0.67736144    -0.01600
C2752       C  0.74746867  0.99587045  0.66031951    -0.09200
C2753       C  0.74859056  0.93300188  0.70403403     0.65100
H2754       H  0.72761665  0.97486895  0.73190693     0.10500
C2755       C  0.73271710  0.04343412  0.66790529     0.63500
H2756       H  0.75303554  0.00138384  0.64015581     0.07900
F2757       F  0.80664410  0.87535175  0.63963044    -0.19600
F2758       F  0.82822333  0.91439881  0.63687358    -0.15800
F2759       F  0.81492465  0.89405457  0.59940739    -0.19300
F2760       F  0.70746604  0.98177237  0.62328817    -0.22700
F2761       F  0.69508559  0.95470804  0.65710495    -0.24100
F2762       F  0.68592552  0.94367385  0.61482489    -0.18100
F2763       F  0.74248855  0.06052606  0.68723806    -0.20600
F2764       F  0.70612384  0.04921393  0.66293640    -0.21800
F2765       F  0.74690792  0.04801365  0.64460957    -0.19000
F2766       F  0.74043265  0.92955958  0.73022205    -0.19100
F2767       F  0.77557874  0.92703313  0.70267546    -0.22900
F2768       F  0.73447781  0.91517914  0.68832043    -0.24500
C2769       C  0.75509023  0.70256968  0.63013074    -0.11300
C2770       C  0.77762674  0.68729349  0.62361481     0.11300
C2771       C  0.79157406  0.69218325  0.59957227    -0.03100
C2772       C  0.78452389  0.71475001  0.58444320    -0.05800
C2773       C  0.76428550  0.73219729  0.59303325    -0.16600
C2774       C  0.74769005  0.72472064  0.61473921     0.02300
C2775       C  0.78740892  0.66784985  0.64347897     0.12300
C2776       C  0.81443062  0.67427009  0.59071645     0.62900
H2777       H  0.79620635  0.72004182  0.56705873     0.12300
C2778       C  0.72275670  0.74004490  0.62287077     0.55000
H2779       H  0.74387360  0.69779725  0.64804267     0.08100
C2780       C  0.80429244  0.67594159  0.66466031    -0.05700
C2781       C  0.81260554  0.65671080  0.68319130    -0.06500
C2782       C  0.80368008  0.63014326  0.68188629    -0.16100
C2783       C  0.78652689  0.62215577  0.66076400    -0.01600
C2784       C  0.77887991  0.64129220  0.64163430    -0.09200
C2785       C  0.81267548  0.70493890  0.66826490     0.65100
H2786       H  0.82551859  0.66253928  0.69958039     0.10500
C2787       C  0.77516701  0.59414904  0.65917616     0.63500
H2788       H  0.76565568  0.63589024  0.62535513     0.07900
F2789       F  0.72810170  0.75484580  0.64556470    -0.19600
F2790       F  0.70226201  0.72230885  0.62840459    -0.15800
F2791       F  0.71379269  0.75691966  0.60289189    -0.19300
F2792       F  0.80509351  0.64851669  0.58732050    -0.22700
F2793       F  0.83450685  0.67414759  0.60973683    -0.24100
F2794       F  0.82540682  0.68267135  0.56677970    -0.18100
F2795       F  0.75704867  0.59154902  0.63840932    -0.20600
F2796       F  0.76200764  0.58815113  0.68271473    -0.21800
F2797       F  0.79561279  0.57600370  0.65504400    -0.19000
F2798       F  0.82986961  0.70816002  0.68973011    -0.19100
F2799       F  0.79032152  0.72056658  0.67281082    -0.22900
F2800       F  0.82562022  0.71405491  0.64566494    -0.24500
C2801       C  0.66892762  0.75096267  0.47670607    -0.11300
C2802       C  0.65752175  0.76874859  0.45830957     0.11300
C2803       C  0.66166044  0.79653452  0.46112347    -0.03100
C2804       C  0.67931022  0.80546263  0.48097111    -0.05800
C2805       C  0.69226257  0.78761856  0.49834796    -0.16600
C2806       C  0.68608864  0.76000323  0.49711978     0.02300
C2807       C  0.64217524  0.75791104  0.43549116     0.12300
C2808       C  0.64762041  0.81662190  0.44312531     0.62900
H2809       H  0.68373447  0.82657019  0.48257540     0.12300
C2810       C  0.69675383  0.74035595  0.51763107     0.55000
H2811       H  0.66473233  0.72985718  0.47453656     0.08100
C2812       C  0.65490236  0.75149653  0.41112755    -0.05700
C2813       C  0.63887872  0.74531292  0.38892955    -0.06500
C2814       C  0.61075085  0.74559319  0.39038725    -0.16100
C2815       C  0.59818860  0.74994463  0.41543842    -0.01600
C2816       C  0.61429866  0.75597429  0.43770078    -0.09200
C2817       C  0.68525236  0.75162023  0.40857684     0.65100
H2818       H  0.64829095  0.74145573  0.36985366     0.10500
C2819       C  0.56803312  0.74847214  0.41882233     0.63500
H2820       H  0.60516679  0.76054564  0.45677384     0.07900
F2821       F  0.72393512  0.73664112  0.51411987    -0.19600
F2822       F  0.68439506  0.71571062  0.51547790    -0.15800
F2823       F  0.69203192  0.74999513  0.54309248    -0.19300
F2824       F  0.62021501  0.81419544  0.44603391    -0.22700
F2825       F  0.65429640  0.81215010  0.41673063    -0.24100
F2826       F  0.65456301  0.84264491  0.44936736    -0.18100
F2827       F  0.56087230  0.74711696  0.44548895    -0.20600
F2828       F  0.55819106  0.72589854  0.40628309    -0.21800
F2829       F  0.55618328  0.77093491  0.40795412    -0.19000
F2830       F  0.69347300  0.74560090  0.38288033    -0.19100
F2831       F  0.69605601  0.73279025  0.42565759    -0.22900
F2832       F  0.69541077  0.77645328  0.41508291    -0.24500
loop_ 
_geom_bond_atom_site_label_1 
_geom_bond_atom_site_label_2 
_geom_bond_distance 
_geom_bond_site_symmetry_2 
_ccdc_geom_bond_type 
Fe1          O17   2.055       .  S
Fe1           O7   2.042       .  S
Fe1          O14   2.054       .  S
Fe1           O6   2.055       .  S
Fe1          O12   1.969       .  S
Fe2           O5   2.056       .  S
Fe2           O9   2.070       .  S
Fe2          O13   2.064       .  S
Fe2          O18   2.063       .  S
Fe2          O12   1.974       .  S
Fe3          O21   2.063       .  S
Fe3           O8   2.075       .  S
Fe3          O15   2.073       .  S
Fe3           O4   2.080       .  S
Fe3          O12   1.979       .  S
O4           C11   1.271       .  A
O5           C19   1.267       .  A
O6           C11   1.267       .  A
O7           C10   1.265       .  A
O8           C20   1.273       .  A
O9           C22   1.269       .  A
C10          O15   1.269       .  A
C10        C2773   1.474       .  S
C11        C2645   1.484       .  S
O13          C16   1.270       .  A
O14          C16   1.264       .  A
C16        C2741   1.488       .  S
O17          C22   1.266       .  A
O18          C20   1.269       .  A
C19          O21   1.266       .  A
C19        C2805   1.479       .  S
C20        C2677   1.481       .  S
C22        C2709   1.483       .  S
Fe23         O39   2.042       .  S
Fe23         O29   2.057       .  S
Fe23         O36   2.049       .  S
Fe23         O28   2.050       .  S
Fe23         O34   1.961       .  S
Fe24         O27   2.062       .  S
Fe24         O31   2.075       .  S
Fe24         O35   2.076       .  S
Fe24         O40   2.074       .  S
Fe24         O34   1.976       .  S
Fe25         O43   2.057       .  S
Fe25         O30   2.071       .  S
Fe25         O37   2.075       .  S
Fe25         O26   2.067       .  S
Fe25         O34   1.971       .  S
O26          C33   1.266       .  A
O27          C41   1.266       .  A
O28          C33   1.264       .  A
O29          C32   1.270       .  A
O30          C42   1.276       .  A
O31          C44   1.271       .  A
C32          O37   1.271       .  A
C32        C2517   1.482       .  S
C33        C2549   1.477       .  S
O35          C38   1.269       .  A
O36          C38   1.264       .  A
C38        C2686   1.480       .  S
O39          C44   1.265       .  A
O40          C42   1.272       .  A
C41          O43   1.263       .  A
C41        C2581   1.481   1_565  S
C42        C2485   1.497   1_565  S
C44        C2622   1.482       .  S
Fe45         O61   2.048       .  S
Fe45         O51   2.060       .  S
Fe45         O58   2.056       .  S
Fe45         O50   2.047       .  S
Fe45         O56   1.965       .  S
Fe46         O49   2.084       .  S
Fe46         O53   2.069       .  S
Fe46         O57   2.086       .  S
Fe46         O62   2.066       .  S
Fe46         O56   1.975       .  S
Fe47         O65   2.061       .  S
Fe47         O52   2.074       .  S
Fe47         O59   2.083       .  S
Fe47         O48   2.073       .  S
Fe47         O56   1.972       .  S
O48          C55   1.269       .  A
O49          C63   1.272       .  A
O50          C55   1.262       .  A
O51          C54   1.269       .  A
O52          C64   1.272       .  A
O53          C66   1.268       .  A
C54          O59   1.272       .  A
C54        C2334   1.475       .  S
C55        C2366   1.477       .  S
O57          C60   1.271       .  A
O58          C60   1.269       .  A
C60        C2389   1.500       .  S
O61          C66   1.265       .  A
O62          C64   1.270       .  A
C63          O65   1.267       .  A
C63        C2421   1.491   1_455  S
C64        C2654   1.472   1_455  S
C66        C2453   1.473       .  S
Fe67         O83   2.047       .  S
Fe67         O73   2.060       .  S
Fe67         O80   2.073       .  S
Fe67         O72   2.059       .  S
Fe67         O78   1.968       .  S
Fe68         O71   2.071       .  S
Fe68         O75   2.070       .  S
Fe68         O79   2.068       .  S
Fe68         O84   2.064       .  S
Fe68         O78   1.984       .  S
Fe69         O87   2.062       .  S
Fe69         O74   2.078       .  S
Fe69         O81   2.075       .  S
Fe69         O70   2.071       .  S
Fe69         O78   1.975       .  S
O70          C77   1.266       .  A
O71          C85   1.267       .  A
O72          C77   1.266       .  A
O73          C76   1.271       .  A
O74          C86   1.274       .  A
O75          C88   1.266       .  A
C76          O81   1.273       .  A
C76        C2142   1.483       .  S
C77        C2165   1.498       .  S
O79          C82   1.269       .  A
O80          C82   1.273       .  A
C82        C2229   1.485       .  S
O83          C88   1.266       .  A
O84          C86   1.269       .  A
C85          O87   1.266       .  A
C85        C2197   1.483       .  S
C86        C2261   1.492       .  S
C88        C2293   1.489       .  S
Fe89        O105   2.049       .  S
Fe89         O95   2.064       .  S
Fe89        O102   2.064       .  S
Fe89         O94   2.052       .  S
Fe89        O100   1.960       .  S
Fe90         O93   2.052       .  S
Fe90         O97   2.082       .  S
Fe90        O101   2.072       .  S
Fe90        O106   2.080       .  S
Fe90        O100   1.964       .  S
Fe91        O109   2.090       .  S
Fe91         O96   2.070       .  S
Fe91        O103   2.076       .  S
Fe91         O92   2.100       .  S
Fe91        O100   1.969       .  S
O92          C99   1.275       .  A
O93         C107   1.266       .  A
O94          C99   1.270       .  A
O95          C98   1.268       .  A
O96         C108   1.273       .  A
O97         C110   1.275       .  A
C98         O103   1.268       .  A
C98        C2005   1.497       .  S
C99        C2270   1.491       .  S
O101        C104   1.267       .  A
O102        C104   1.266       .  A
C104       C2069   1.493       .  S
O105        C110   1.268       .  A
O106        C108   1.274       .  A
C107        O109   1.271       .  A
C107       C2110   1.493       .  S
C108       C2398   1.479   1_545  S
C110       C2037   1.490       .  S
Fe111       O127   2.041       .  S
Fe111       O117   2.065       .  S
Fe111       O124   2.069       .  S
Fe111       O116   2.048       .  S
Fe111       O122   1.971       .  S
Fe112       O115   2.047       .  S
Fe112       O119   2.080       .  S
Fe112       O123   2.055       .  S
Fe112       O128   2.078       .  S
Fe112       O122   1.978       .  S
Fe113       O131   2.087       .  S
Fe113       O118   2.057       .  S
Fe113       O125   2.066       .  S
Fe113       O114   2.084       .  S
Fe113       O122   1.984       .  S
O114        C121   1.273       .  A
O115        C129   1.264       .  A
O116        C121   1.269       .  A
O117        C120   1.266       .  A
O118        C130   1.265       .  A
O119        C132   1.271       .  A
C120        O125   1.266       .  A
C120       C1973   1.481       .  S
C121       C2494   1.475       .  S
O123        C126   1.267       .  A
O124        C126   1.266       .  A
C126       C1918   1.485       .  S
O127        C132   1.267       .  A
O128        C130   1.271       .  A
C129        O131   1.273       .  A
C129       C1950   1.487       .  S
C130       C2238   1.488   1_655  S
C132       C1877   1.470       .  S
Fe133       O149   2.045       .  S
Fe133       O139   2.052       .  S
Fe133       O146   2.055       .  S
Fe133       O138   2.054       .  S
Fe133       O144   1.962       .  S
Fe134       O137   2.080       .  S
Fe134       O141   2.066       .  S
Fe134       O145   2.085       .  S
Fe134       O150   2.064       .  S
Fe134       O144   1.978       .  S
Fe135       O153   2.048       .  S
Fe135       O140   2.076       .  S
Fe135       O147   2.080       .  S
Fe135       O136   2.065       .  S
Fe135       O144   1.979       .  S
O136        C143   1.268       .  A
O137        C151   1.270       .  A
O138        C143   1.265       .  A
O139        C142   1.266       .  A
O140        C152   1.272       .  A
O141        C154   1.267       .  A
C142        O147   1.271       .  A
C142       C1822   1.488       .  S
C143       C1845   1.479       .  S
O145        C148   1.271       .  A
O146        C148   1.268       .  A
C148       C1749   1.486       .  S
O149        C154   1.268       .  A
O150        C152   1.271       .  A
C151        O153   1.263       .  A
C151       C1909   1.484       .  S
C152       C1717   1.476       .  S
C154       C1781   1.486       .  S
Fe155       O171   2.075       .  S
Fe155       O161   2.043       .  S
Fe155       O168   2.059       .  S
Fe155       O160   2.069       .  S
Fe155       O166   1.958       .  S
Fe156       O159   2.061       .  S
Fe156       O163   2.061       .  S
Fe156       O167   2.066       .  S
Fe156       O172   2.071       .  S
Fe156       O166   1.961       .  S
Fe157       O175   2.068       .  S
Fe157       O162   2.090       .  S
Fe157       O169   2.087       .  S
Fe157       O158   2.064       .  S
Fe157       O166   1.964       .  S
O158        C165   1.270       .  A
O159        C173   1.266       .  A
O160        C165   1.272       .  A
O161        C164   1.264       .  A
O162        C174   1.278       .  A
O163        C176   1.270       .  A
C164        O169   1.273       .  A
C164       C1886   1.482       .  S
C165       C1726   1.484       .  S
O167        C170   1.264       .  A
O168        C170   1.266       .  A
C170       C1653   1.497       .  S
O171        C176   1.275       .  A
O172        C174   1.274       .  A
C173        O175   1.266       .  A
C173       C1685   1.485       .  S
C174       C1598   1.492       .  S
C176       C1630   1.498       .  S
Fe177       O193   2.054       .  S
Fe177       O183   2.057       .  S
Fe177       O190   2.046       .  S
Fe177       O182   2.050       .  S
Fe177       O188   1.966       .  S
Fe178       O181   2.065       .  S
Fe178       O185   2.078       .  S
Fe178       O189   2.077       .  S
Fe178       O194   2.073       .  S
Fe178       O188   1.977       .  S
Fe179       O197   2.059       .  S
Fe179       O184   2.075       .  S
Fe179       O191   2.073       .  S
Fe179       O180   2.072       .  S
Fe179       O188   1.976       .  S
O180        C187   1.267       .  A
O181        C195   1.267       .  A
O182        C187   1.265       .  A
O183        C186   1.268       .  A
O184        C196   1.274       .  A
O185        C198   1.272       .  A
C186        O191   1.270       .  A
C186       C1525   1.479       .  S
C187       C1557   1.494       .  S
O189        C192   1.272       .  A
O190        C192   1.262       .  A
C192       C1461   1.497       .  S
O193        C198   1.265       .  A
O194        C196   1.270       .  A
C195        O197   1.266       .  A
C195       C1493   1.472       .  S
C196       C1438   1.498       .  S
C198       C2325   1.495       .  S
Fe199       O215   2.061       .  S
Fe199       O205   2.050       .  S
Fe199       O212   2.058       .  S
Fe199       O204   2.061       .  S
Fe199       O210   1.964       .  S
Fe200       O203   2.073       .  S
Fe200       O207   2.077       .  S
Fe200       O211   2.088       .  S
Fe200       O216   2.073       .  S
Fe200       O210   1.970       .  S
Fe201       O219   2.083       .  S
Fe201       O206   2.085       .  S
Fe201       O213   2.083       .  S
Fe201       O202   2.085       .  S
Fe201       O210   1.973       .  S
O202        C209   1.273       .  A
O203        C217   1.269       .  A
O204        C209   1.270       .  A
O205        C208   1.266       .  A
O206        C218   1.274       .  A
O207        C220   1.270       .  A
C208        O213   1.271       .  A
C208       C1406   1.475       .  S
C209       C1429   1.496       .  S
O211        C214   1.274       .  A
O212        C214   1.265       .  A
C214       C2206   1.493       .  S
O215        C220   1.267       .  A
O216        C218   1.272       .  A
C217        O219   1.272       .  A
C217       C1365   1.483       .  S
C218       C1758   1.496       .  S
C220       C2014   1.473       .  S
Fe221       O237   2.045       .  S
Fe221       O227   2.069       .  S
Fe221       O234   2.065       .  S
Fe221       O226   2.056       .  S
Fe221       O232   1.973       .  S
Fe222       O225   2.078       .  S
Fe222       O229   2.075       .  S
Fe222       O233   2.083       .  S
Fe222       O238   2.072       .  S
Fe222       O232   1.981       .  S
Fe223       O241   2.054       .  S
Fe223       O228   2.066       .  S
Fe223       O235   2.060       .  S
Fe223       O224   2.064       .  S
Fe223       O232   1.979       .  S
O224        C231   1.266       .  A
O225        C239   1.269       .  A
O226        C231   1.266       .  A
O227        C230   1.270       .  A
O228        C240   1.271       .  A
O229        C242   1.270       .  A
C230        O235   1.267       .  A
C230       C2613   1.469       .  S
C231       C2814   1.484       .  S
O233        C236   1.271       .  A
O234        C236   1.271       .  A
C236       C1589   1.496       .  S
O237        C242   1.267       .  A
O238        C240   1.273       .  A
C239        O241   1.264       .  A
C239       C1333   1.476       .  S
C240       C1269   1.483       .  S
C242       C1301   1.484       .  S
Fe243       O259   2.051       .  S
Fe243       O249   2.070       .  S
Fe243       O256   2.066       .  S
Fe243       O248   2.056       .  S
Fe243       O254   1.960       .  S
Fe244       O247   2.056       .  S
Fe244       O251   2.069       .  S
Fe244       O255   2.064       .  S
Fe244       O260   2.075       .  S
Fe244       O254   1.966       .  S
Fe245       O263   2.082       .  S
Fe245       O250   2.063       .  S
Fe245       O257   2.056       .  S
Fe245       O246   2.085       .  S
Fe245       O254   1.972       .  S
O246        C253   1.273       .  A
O247        C261   1.266       .  A
O248        C253   1.265       .  A
O249        C252   1.272       .  A
O250        C262   1.269       .  A
O251        C264   1.267       .  A
C252        O257   1.267       .  A
C252       C1237   1.476       .  S
C253       C1278   1.497       .  S
O255        C258   1.269       .  A
O256        C258   1.270       .  A
C258       C1214   1.481       .  S
O259        C264   1.267       .  A
O260        C262   1.273       .  A
C261        O263   1.270       .  A
C261       C2357   1.481       .  S
C262       C1470   1.485       .  S
C264       C1173   1.471       .  S
Fe265       O281   2.052       .  S
Fe265       O271   2.055       .  S
Fe265       O278   2.063       .  S
Fe265       O270   2.046       .  S
Fe265       O276   1.963       .  S
Fe266       O269   2.059       .  S
Fe266       O273   2.071       .  S
Fe266       O277   2.069       .  S
Fe266       O282   2.072       .  S
Fe266       O276   1.968       .  S
Fe267       O285   2.063       .  S
Fe267       O272   2.078       .  S
Fe267       O279   2.077       .  S
Fe267       O268   2.061       .  S
Fe267       O276   1.974       .  S
O268        C275   1.266       .  A
O269        C283   1.264       .  A
O270        C275   1.267       .  A
O271        C274   1.269       .  A
O272        C284   1.275       .  A
O273        C286   1.271       .  A
C274        O279   1.270       .  A
C274       C1150   1.485       .  S
C275       C1077   1.481       .  S
O277        C280   1.269       .  A
O278        C280   1.265       .  A
C280       C2430   1.489       .  S
O281        C286   1.268       .  A
O282        C284   1.273       .  A
C283        O285   1.265       .  A
C283       C1854   1.467       .  S
C284       C1109   1.491       .  S
C286       C2782   1.479       .  S
Fe287       O303   2.051       .  S
Fe287       O293   2.063       .  S
Fe287       O300   2.059       .  S
Fe287       O292   2.052       .  S
Fe287       O298   1.962       .  S
Fe288       O291   2.074       .  S
Fe288       O295   2.080       .  S
Fe288       O299   2.078       .  S
Fe288       O304   2.071       .  S
Fe288       O298   1.975       .  S
Fe289       O307   2.072       .  S
Fe289       O294   2.057       .  S
Fe289       O301   2.059       .  S
Fe289       O290   2.076       .  S
Fe289       O298   1.974       .  S
O290        C297   1.272       .  A
O291        C305   1.270       .  A
O292        C297   1.265       .  A
O293        C296   1.269       .  A
O294        C306   1.267       .  A
O295        C308   1.271       .  A
C296        O301   1.266       .  A
C296       C1013   1.480       .  S
C297       C1045   1.493       .  S
O299        C302   1.269       .  A
O300        C302   1.268       .  A
C302       C1118   1.492       .  S
O303        C308   1.269       .  A
O304        C306   1.272       .  A
C305        O307   1.269       .  A
C305       C2078   1.480       .  S
C306        C981   1.479   1_655  S
C308       C1813   1.476       .  S
Fe309       O325   2.049       .  S
Fe309       O315   2.083       .  S
Fe309       O322   2.076       .  S
Fe309       O314   2.053       .  S
Fe309       O320   1.941       .  S
Fe310       O313   2.059       .  S
Fe310       O317   2.089       .  S
Fe310       O321   2.062       .  S
Fe310       O326   2.078       .  S
Fe310       O320   1.950       .  S
Fe311       O329   2.069       .  S
Fe311       O316   2.052       .  S
Fe311       O323   2.054       .  S
Fe311       O312   2.077       .  S
Fe311       O320   1.953       .  S
O312        C319   1.269       .  A
O313        C327   1.268       .  A
O314        C319   1.267       .  A
O315        C318   1.274       .  A
O316        C328   1.269       .  A
O317        C330   1.273       .  A
C318        O323   1.268       .  A
C318       C1310   1.476       .  S
C319       C1694   1.480       .  S
O321        C324   1.267       .  A
O322        C324   1.274       .  A
C324        C926   1.490       .  S
O325        C330   1.268       .  A
O326        C328   1.273       .  A
C327        O329   1.268       .  A
C327        C958   1.474   1_554  S
C328       C1086   1.474   1_554  S
C330       C2526   1.487       .  S
Fe331       O347   2.057       .  S
Fe331       O337   2.071       .  S
Fe331       O344   2.069       .  S
Fe331       O336   2.057       .  S
Fe331       O342   1.956       .  S
Fe332       O335   2.064       .  S
Fe332       O339   2.083       .  S
Fe332       O343   2.073       .  S
Fe332       O348   2.077       .  S
Fe332       O342   1.968       .  S
Fe333       O351   2.065       .  S
Fe333       O338   2.070       .  S
Fe333       O345   2.060       .  S
Fe333       O334   2.080       .  S
Fe333       O342   1.977       .  S
O334        C341   1.272       .  A
O335        C349   1.269       .  A
O336        C341   1.265       .  A
O337        C340   1.270       .  A
O338        C350   1.271       .  A
O339        C352   1.269       .  A
C340        O345   1.267       .  A
C340       C2302   1.478       .  S
C341       C1941   1.493       .  S
O343        C346   1.272       .  A
O344        C346   1.269       .  A
C346        C821   1.492       .  S
O347        C352   1.268       .  A
O348        C350   1.271       .  A
C349        O351   1.269       .  A
C349       C1205   1.470       .  S
C350        C853   1.484       .  S
C352        C894   1.494       .  S
Fe353       O369   2.052       .  S
Fe353       O359   2.064       .  S
Fe353       O366   2.071       .  S
Fe353       O358   2.059       .  S
Fe353       O364   1.966       .  S
Fe354       O357   2.041       .  S
Fe354       O361   2.075       .  S
Fe354       O365   2.059       .  S
Fe354       O370   2.074       .  S
Fe354       O364   1.972       .  S
Fe355       O373   2.081       .  S
Fe355       O360   2.058       .  S
Fe355       O367   2.057       .  S
Fe355       O356   2.086       .  S
Fe355       O364   1.979       .  S
O356        C363   1.272       .  A
O357        C371   1.264       .  A
O358        C363   1.270       .  A
O359        C362   1.268       .  A
O360        C372   1.268       .  A
O361        C374   1.269       .  A
C362        O367   1.266       .  A
C362       C1182   1.475       .  S
C363        C862   1.492       .  S
O365        C368   1.266       .  A
O366        C368   1.269       .  A
C368        C789   1.482       .  S
O369        C374   1.268       .  A
O370        C372   1.271       .  A
C371        O373   1.269       .  A
C371       C2558   1.484   1_455  S
C372        C917   1.469   1_455  S
C374        C757   1.484       .  S
Fe375       O391   2.057       .  S
Fe375       O381   2.068       .  S
Fe375       O388   2.068       .  S
Fe375       O380   2.055       .  S
Fe375       O386   1.952       .  S
Fe376       O379   2.038       .  S
Fe376       O383   2.082       .  S
Fe376       O387   2.058       .  S
Fe376       O392   2.081       .  S
Fe376       O386   1.956       .  S
Fe377       O395   2.078       .  S
Fe377       O382   2.062       .  S
Fe377       O389   2.066       .  S
Fe377       O378   2.085       .  S
Fe377       O386   1.963       .  S
O378        C385   1.275       .  A
O379        C393   1.264       .  A
O380        C385   1.267       .  A
O381        C384   1.268       .  A
O382        C394   1.270       .  A
O383        C396   1.272       .  A
C384        O389   1.267       .  A
C384       C2046   1.478       .  S
C385        C990   1.494       .  S
O387        C390   1.265       .  A
O388        C390   1.267       .  A
C390       C1502   1.479       .  S
O391        C396   1.271       .  A
O392        C394   1.273       .  A
C393        O395   1.270       .  A
C393        C725   1.466       .  S
C394        C830   1.475   1_556  S
C396       C1397   1.484       .  S
Fe397       O413   2.063       .  S
Fe397       O403   2.054       .  S
Fe397       O410   2.060       .  S
Fe397       O402   2.062       .  S
Fe397       O408   1.960       .  S
Fe398       O401   2.059       .  S
Fe398       O405   2.068       .  S
Fe398       O409   2.061       .  S
Fe398       O414   2.066       .  S
Fe398       O408   1.970       .  S
Fe399       O417   2.059       .  S
Fe399       O404   2.079       .  S
Fe399       O411   2.082       .  S
Fe399       O400   2.063       .  S
Fe399       O408   1.969       .  S
O400        C407   1.268       .  A
O401        C415   1.266       .  A
O402        C407   1.267       .  A
O403        C406   1.268       .  A
O404        C416   1.274       .  A
O405        C418   1.270       .  A
C406        O411   1.271       .  A
C406       C2718   1.485       .  S
C407        C661   1.479       .  S
O409        C412   1.266       .  A
O410        C412   1.267       .  A
C412        C949   1.482       .  S
O413        C418   1.268       .  A
O414        C416   1.271       .  A
C415        O417   1.266       .  A
C415       C1566   1.471       .  S
C416        C693   1.484       .  S
C418       C1141   1.481       .  S
Fe419       O435   2.056       .  S
Fe419       O425   2.050       .  S
Fe419       O432   2.054       .  S
Fe419       O424   2.066       .  S
Fe419       O430   1.969       .  S
Fe420       O423   2.071       .  S
Fe420       O427   2.067       .  S
Fe420       O431   2.082       .  S
Fe420       O436   2.070       .  S
Fe420       O430   1.987       .  S
Fe421       O439   2.062       .  S
Fe421       O426   2.064       .  S
Fe421       O433   2.068       .  S
Fe421       O422   2.073       .  S
Fe421       O430   1.975       .  S
O422        C429   1.269       .  A
O423        C437   1.267       .  A
O424        C429   1.269       .  A
O425        C428   1.266       .  A
O426        C438   1.268       .  A
O427        C440   1.267       .  A
C428        O433   1.268       .  A
C428       C2462   1.466       .  S
C429       C2101   1.493       .  S
O431        C434   1.270       .  A
O432        C434   1.268       .  A
C434        C702   1.495       .  S
O435        C440   1.269       .  A
O436        C438   1.273       .  A
C437        O439   1.268       .  A
C437        C798   1.492       .  S
C438        C629   1.496   1_556  S
C440       C1534   1.478       .  S
Fe441       O457   2.058       .  S
Fe441       O447   2.055       .  S
Fe441       O454   2.061       .  S
Fe441       O446   2.072       .  S
Fe441       O452   1.970       .  S
Fe442       O445   2.076       .  S
Fe442       O449   2.062       .  S
Fe442       O453   2.074       .  S
Fe442       O458   2.061       .  S
Fe442       O452   1.984       .  S
Fe443       O461   2.066       .  S
Fe443       O448   2.063       .  S
Fe443       O455   2.062       .  S
Fe443       O444   2.079       .  S
Fe443       O452   1.978       .  S
O444        C451   1.270       .  A
O445        C459   1.270       .  A
O446        C451   1.271       .  A
O447        C450   1.267       .  A
O448        C460   1.267       .  A
O449        C462   1.266       .  A
C450        O455   1.267       .  A
C450       C1790   1.478       .  S
C451       C1374   1.506       .  S
O453        C456   1.271       .  A
O454        C456   1.270       .  A
C456        C597   1.478       .  S
O457        C462   1.268       .  A
O458        C460   1.268       .  A
C459        O461   1.268       .  A
C459       C2750   1.487       .  S
C460        C670   1.469   1_545  S
C462       C1022   1.476       .  S
Fe463       O479   2.046       .  S
Fe463       O469   2.068       .  S
Fe463       O476   2.054       .  S
Fe463       O468   2.046       .  S
Fe463       O474   1.945       .  S
Fe464       O467   2.063       .  S
Fe464       O471   2.084       .  S
Fe464       O475   2.070       .  S
Fe464       O480   2.078       .  S
Fe464       O474   1.959       .  S
Fe465       O483   2.070       .  S
Fe465       O470   2.063       .  S
Fe465       O477   2.071       .  S
Fe465       O466   2.078       .  S
Fe465       O474   1.959       .  S
O466        C473   1.268       .  A
O467        C481   1.268       .  A
O468        C473   1.265       .  A
O469        C472   1.272       .  A
O470        C482   1.273       .  A
O471        C484   1.272       .  A
C472        O477   1.271       .  A
C472        C885   1.484       .  S
C473        C734   1.481       .  S
O475        C478   1.271       .  A
O476        C478   1.263       .  A
C478        C542   1.497       .  S
O479        C484   1.268       .  A
O480        C482   1.272       .  A
C481        O483   1.269       .  A
C481       C1662   1.471       .  S
C482        C565   1.493       .  S
C484       C2133   1.473       .  S
Fe485       O501   2.067       .  S
Fe485       O491   2.041       .  S
Fe485       O498   2.053       .  S
Fe485       O490   2.070       .  S
Fe485       O496   1.951       .  S
Fe486       O489   2.076       .  S
Fe486       O493   2.078       .  S
Fe486       O497   2.082       .  S
Fe486       O502   2.069       .  S
Fe486       O496   1.961       .  S
Fe487       O505   2.056       .  S
Fe487       O492   2.075       .  S
Fe487       O499   2.079       .  S
Fe487       O488   2.062       .  S
Fe487       O496   1.968       .  S
O488        C495   1.266       .  A
O489        C503   1.270       .  A
O490        C495   1.270       .  A
O491        C494   1.267       .  A
O492        C504   1.274       .  A
O493        C506   1.269       .  A
C494        O499   1.272       .  A
C494       C1621   1.465       .  S
C495        C574   1.487       .  S
O497        C500   1.272       .  A
O498        C500   1.269       .  A
C500       C2590   1.481       .  S
O501        C506   1.270       .  A
O502        C504   1.270       .  A
C503        O505   1.266       .  A
C503       C1054   1.469   1_554  S
C504        C606   1.495   1_554  S
C506       C1982   1.500       .  S
Fe507       O523   2.037       .  S
Fe507       O513   2.068       .  S
Fe507       O520   2.072       .  S
Fe507       O512   2.049       .  S
Fe507       O518   1.952       .  S
Fe508       O511   2.061       .  S
Fe508       O515   2.086       .  S
Fe508       O519   2.070       .  S
Fe508       O524   2.080       .  S
Fe508       O518   1.964       .  S
Fe509       O527   2.082       .  S
Fe509       O514   2.049       .  S
Fe509       O521   2.061       .  S
Fe509       O510   2.088       .  S
Fe509       O518   1.972       .  S
O510        C517   1.272       .  A
O511        C525   1.267       .  A
O512        C517   1.265       .  A
O513        C516   1.270       .  A
O514        C526   1.268       .  A
O515        C528   1.272       .  A
C516        O521   1.268       .  A
C516        C766   1.468       .  S
C517        C638   1.485       .  S
O519        C522   1.270       .  A
O520        C522   1.268       .  A
C522       C1342   1.493       .  S
O523        C528   1.264       .  A
O524        C526   1.276       .  A
C525        O527   1.270       .  A
C525       C2174   1.476   1_565  S
C526        C533   1.483   1_565  S
C528       C1246   1.467       .  S
C529        C530   1.400       .  A
C529        C534   1.407       .  A
C529        H539   1.083       .  S
C530        C535   1.477       .  S
C530        C531   1.415       .  A
C531        C532   1.402       .  A
C531        C536   1.523       .  S
C532        C533   1.405       .  A
C532        H537   1.083       .  S
C533        C534   1.423       .  A
C534        C538   1.520       .  S
C535        C540   1.408       .  A
C535        C544   1.395       .  A
C536        F552   1.382       .  S
C536        F553   1.381       .  S
C536        F554   1.385       .  S
C538        F549   1.383   1_545  S
C538        F550   1.385       .  S
C538        F551   1.383       .  S
C540        C541   1.407       .  A
C540        C545   1.518       .  S
C541        C542   1.413       .  A
C541        H546   1.082       .  S
C542        C543   1.432       .  A
C543        C544   1.403       .  A
C543        C547   1.524       .  S
C544        H548   1.083       .  S
C545        F558   1.384       .  S
C545        F559   1.383       .  S
C545        F560   1.381       .  S
C547        F555   1.384       .  S
C547        F556   1.383       .  S
C547        F557   1.385       .  S
C561        C562   1.399       .  A
C561        C566   1.406       .  A
C561        H571   1.083       .  S
C562        C567   1.482       .  S
C562        C563   1.411       .  A
C563        C564   1.406       .  A
C563        C568   1.519       .  S
C564        C565   1.410       .  A
C564        H569   1.082       .  S
C565        C566   1.426       .  A
C566        C570   1.520       .  S
C567        C572   1.415       .  A
C567        C576   1.402       .  A
C568        F584   1.383       .  S
C568        F585   1.382       .  S
C568        F586   1.385       .  S
C570        F581   1.383       .  S
C570        F582   1.385       .  S
C570        F583   1.383       .  S
C572        C573   1.402       .  A
C572        C577   1.523       .  S
C573        C574   1.406       .  A
C573        H578   1.083       .  S
C574        C575   1.421       .  A
C575        C576   1.412       .  A
C575        C579   1.518       .  S
C576        H580   1.083       .  S
C577        F590   1.385       .  S
C577        F591   1.382       .  S
C577        F592   1.382       .  S
C579        F587   1.384       .  S
C579        F588   1.384       .  S
C579        F589   1.383       .  S
C593        C594   1.405       .  A
C593        C598   1.412       .  A
C593        H603   1.083       .  S
C594        C599   1.484       .  S
C594        C595   1.417       .  A
C595        C596   1.402       .  A
C595        C600   1.523       .  S
C596        C597   1.403       .  A
C596        H601   1.084       .  S
C597        C598   1.416       .  A
C598        C602   1.516       .  S
C599        C604   1.411       .  A
C599        C608   1.398       .  A
C600        F616   1.382       .  S
C600        F617   1.382       .  S
C600        F618   1.385       .  S
C602        F613   1.384       .  S
C602        F614   1.382       .  S
C602        F615   1.383       .  S
C604        C605   1.407       .  A
C604        C609   1.518       .  S
C605        C606   1.410       .  A
C605        H610   1.083       .  S
C606        C607   1.426       .  A
C607        C608   1.408       .  A
C607        C611   1.519       .  S
C608        H612   1.083       .  S
C609        F622   1.385       .  S
C609        F623   1.383       .  S
C609        F624   1.383       .  S
C611        F619   1.381   1_556  S
C611        F620   1.383       .  S
C611        F621   1.385       .  S
C625        C626   1.398       .  A
C625        C630   1.408       .  A
C625        H635   1.083       .  S
C626        C631   1.483       .  S
C626        C627   1.413       .  A
C627        C628   1.406       .  A
C627        C632   1.520       .  S
C628        C629   1.409       .  A
C628        H633   1.082       .  S
C629        C630   1.429       .  A
C630        C634   1.522       .  S
C631        C636   1.414       .  A
C631        C640   1.398       .  A
C632        F648   1.382       .  S
C632        F649   1.382       .  S
C632        F650   1.384       .  S
C634        F645   1.382   1_554  S
C634        F646   1.385       .  S
C634        F647   1.384       .  S
C636        C637   1.411       .  A
C636        C641   1.518       .  S
C637        C638   1.408       .  A
C637        H642   1.083       .  S
C638        C639   1.423       .  A
C639        C640   1.402       .  A
C639        C643   1.522       .  S
C640        H644   1.084       .  S
C641        F654   1.385       .  S
C641        F655   1.382       .  S
C641        F656   1.382       .  S
C643        F651   1.385       .  S
C643        F652   1.383       .  S
C643        F653   1.382       .  S
C657        C658   1.402       .  A
C657        C662   1.405       .  A
C657        H667   1.083       .  S
C658        C663   1.481       .  S
C658        C659   1.415       .  A
C659        C660   1.405       .  A
C659        C664   1.520       .  S
C660        C661   1.405       .  A
C660        H665   1.083       .  S
C661        C662   1.418       .  A
C662        C666   1.519       .  S
C663        C668   1.416       .  A
C663        C672   1.401       .  A
C664        F680   1.382       .  S
C664        F681   1.382       .  S
C664        F682   1.385       .  S
C666        F677   1.385       .  S
C666        F678   1.382       .  S
C666        F679   1.384       .  S
C668        C669   1.408       .  A
C668        C673   1.517       .  S
C669        C670   1.402       .  A
C669        H674   1.083   1_565  S
C670        C671   1.415       .  A
C671        C672   1.401       .  A
C671        C675   1.518       .  S
C672        H676   1.083       .  S
C673        F686   1.385   1_565  S
C673        F687   1.381       .  S
C673        F688   1.382       .  S
C675        F683   1.381       .  S
C675        F684   1.383       .  S
C675        F685   1.385       .  S
C689        C690   1.401       .  A
C689        C694   1.407       .  A
C689        H699   1.083       .  S
C690        C695   1.484       .  S
C690        C691   1.413       .  A
C691        C692   1.409       .  A
C691        C696   1.518       .  S
C692        C693   1.407       .  A
C692        H697   1.083       .  S
C693        C694   1.421       .  A
C694        C698   1.519       .  S
C695        C700   1.414       .  A
C695        C704   1.402       .  A
C696        F712   1.383       .  S
C696        F713   1.381       .  S
C696        F714   1.384       .  S
C698        F709   1.381       .  S
C698        F710   1.384       .  S
C698        F711   1.383       .  S
C700        C701   1.403       .  A
C700        C705   1.524       .  S
C701        C702   1.409       .  A
C701        H706   1.082       .  S
C702        C703   1.424       .  A
C703        C704   1.413       .  A
C703        C707   1.518       .  S
C704        H708   1.083       .  S
C705        F718   1.385       .  S
C705        F719   1.382       .  S
C705        F720   1.381       .  S
C707        F715   1.383       .  S
C707        F716   1.383       .  S
C707        F717   1.385       .  S
C721        C722   1.404       .  A
C721        C726   1.408   1_554  A
C721        H731   1.083       .  S
C722        C727   1.477       .  S
C722        C723   1.416       .  A
C723        C724   1.399       .  A
C723        C728   1.522       .  S
C724        C725   1.400   1_554  A
C724        H729   1.084       .  S
C725        C726   1.413       .  A
C726        C730   1.516       .  S
C727        C732   1.412       .  A
C727        C736   1.402       .  A
C728        F744   1.382       .  S
C728        F745   1.383       .  S
C728        F746   1.385       .  S
C730        F741   1.382       .  S
C730        F742   1.385       .  S
C730        F743   1.383       .  S
C732        C733   1.400       .  A
C732        C737   1.521       .  S
C733        C734   1.407       .  A
C733        H738   1.083       .  S
C734        C735   1.420       .  A
C735        C736   1.407       .  A
C735        C739   1.519       .  S
C736        H740   1.083       .  S
C737        F750   1.385       .  S
C737        F751   1.382       .  S
C737        F752   1.383       .  S
C739        F747   1.383       .  S
C739        F748   1.382       .  S
C739        F749   1.385       .  S
C753        C754   1.402       .  A
C753        C758   1.411       .  A
C753        H763   1.083       .  S
C754        C759   1.481       .  S
C754        C755   1.416       .  A
C755        C756   1.401       .  A
C755        C760   1.523       .  S
C756        C757   1.404       .  A
C756        H761   1.083       .  S
C757        C758   1.422       .  A
C758        C762   1.518       .  S
C759        C764   1.415       .  A
C759        C768   1.401       .  A
C760        F776   1.382       .  S
C760        F777   1.382       .  S
C760        F778   1.385       .  S
C762        F773   1.383       .  S
C762        F774   1.385       .  S
C762        F775   1.383       .  S
C764        C765   1.407       .  A
C764        C769   1.517       .  S
C765        C766   1.402       .  A
C765        H770   1.084       .  S
C766        C767   1.416       .  A
C767        C768   1.402       .  A
C767        C771   1.517       .  S
C768        H772   1.085       .  S
C769        F782   1.385       .  S
C769        F783   1.383       .  S
C769        F784   1.382       .  S
C771        F779   1.383       .  S
C771        F780   1.382       .  S
C771        F781   1.384       .  S
C785        C786   1.400       .  A
C785        C790   1.404       .  A
C785        H795   1.083       .  S
C786        C791   1.486       .  S
C786        C787   1.416       .  A
C787        C788   1.410       .  A
C787        C792   1.518       .  S
C788        C789   1.405       .  A
C788        H793   1.083       .  S
C789        C790   1.421       .  A
C790        C794   1.521       .  S
C791        C796   1.414       .  A
C791        C800   1.402       .  A
C792        F808   1.381       .  S
C792        F809   1.382       .  S
C792        F810   1.385       .  S
C794        F805   1.383       .  S
C794        F806   1.385       .  S
C794        F807   1.381       .  S
C796        C797   1.406   1_554  A
C796        C801   1.520   1_554  S
C797        C798   1.407       .  A
C797        H802   1.080       .  S
C798        C799   1.423   1_556  A
C799        C800   1.409       .  A
C799        C803   1.520       .  S
C800        H804   1.083       .  S
C801        F814   1.385       .  S
C801        F815   1.381   1_556  S
C801        F816   1.382       .  S
C803        F811   1.385       .  S
C803        F812   1.383       .  S
C803        F813   1.383       .  S
C817        C818   1.399       .  A
C817        C822   1.406       .  A
C817        H827   1.084       .  S
C818        C823   1.485       .  S
C818        C819   1.413       .  A
C819        C820   1.410       .  A
C819        C824   1.519       .  S
C820        C821   1.409       .  A
C820        H825   1.083       .  S
C821        C822   1.424       .  A
C822        C826   1.519       .  S
C823        C828   1.418       .  A
C823        C832   1.404       .  A
C824        F840   1.382       .  S
C824        F841   1.382       .  S
C824        F842   1.385       .  S
C826        F837   1.385       .  S
C826        F838   1.384       .  S
C826        F839   1.383       .  S
C828        C829   1.405       .  A
C828        C833   1.522       .  S
C829        C830   1.402       .  A
C829        H834   1.084       .  S
C830        C831   1.415       .  A
C831        C832   1.410       .  A
C831        C835   1.517   1_554  S
C832        H836   1.083       .  S
C833        F846   1.385       .  S
C833        F847   1.382       .  S
C833        F848   1.381       .  S
C835        F843   1.384       .  S
C835        F844   1.383       .  S
C835        F845   1.383       .  S
C849        C850   1.402       .  A
C849        C854   1.410       .  A
C849        H859   1.083       .  S
C850        C855   1.488       .  S
C850        C851   1.416       .  A
C851        C852   1.408       .  A
C851        C856   1.520       .  S
C852        C853   1.405       .  A
C852        H857   1.083       .  S
C853        C854   1.419       .  A
C854        C858   1.518       .  S
C855        C860   1.415       .  A
C855        C864   1.403       .  A
C856        F872   1.383       .  S
C856        F873   1.383       .  S
C856        F874   1.384       .  S
C858        F869   1.382       .  S
C858        F870   1.385       .  S
C858        F871   1.384       .  S
C860        C861   1.406       .  A
C860        C865   1.521       .  S
C861        C862   1.407       .  A
C861        H866   1.083       .  S
C862        C863   1.421       .  A
C863        C864   1.412       .  A
C863        C867   1.517       .  S
C864        H868   1.083       .  S
C865        F878   1.384       .  S
C865        F879   1.382       .  S
C865        F880   1.382       .  S
C867        F875   1.385       .  S
C867        F876   1.384       .  S
C867        F877   1.382       .  S
C881        C882   1.404       .  A
C881        C886   1.412       .  A
C881        H891   1.083       .  S
C882        C887   1.486       .  S
C882        C883   1.416       .  A
C883        C884   1.402       .  A
C883        C888   1.522       .  S
C884        C885   1.405       .  A
C884        H889   1.083       .  S
C885        C886   1.419       .  A
C886        C890   1.518       .  S
C887        C892   1.413       .  A
C887        C896   1.400       .  A
C888        F904   1.382       .  S
C888        F905   1.383       .  S
C888        F906   1.385       .  S
C890        F901   1.384       .  S
C890        F902   1.384       .  S
C890        F903   1.383       .  S
C892        C893   1.406       .  A
C892        C897   1.520       .  S
C893        C894   1.407       .  A
C893        H898   1.081       .  S
C894        C895   1.425       .  A
C895        C896   1.410       .  A
C895        C899   1.519       .  S
C896        H900   1.083       .  S
C897        F910   1.383       .  S
C897        F911   1.383       .  S
C897        F912   1.383       .  S
C899        F907   1.385       .  S
C899        F908   1.383       .  S
C899        F909   1.383       .  S
C913        C914   1.400       .  A
C913        C918   1.402       .  A
C913        H923   1.084       .  S
C914        C919   1.478       .  S
C914        C915   1.415       .  A
C915        C916   1.409       .  A
C915        C920   1.516       .  S
C916        C917   1.402       .  A
C916        H921   1.083       .  S
C917        C918   1.415       .  A
C918        C922   1.519       .  S
C919        C924   1.415       .  A
C919        C928   1.399       .  A
C920        F936   1.383       .  S
C920        F937   1.383       .  S
C920        F938   1.384       .  S
C922        F933   1.385       .  S
C922        F934   1.382       .  S
C922        F935   1.383       .  S
C924        C925   1.400       .  A
C924        C929   1.519       .  S
C925        C926   1.406       .  A
C925        H930   1.085       .  S
C926        C927   1.426       .  A
C927        C928   1.408       .  A
C927        C931   1.520       .  S
C928        H932   1.083       .  S
C929        F942   1.384       .  S
C929        F943   1.383       .  S
C929        F944   1.381       .  S
C931        F939   1.385       .  S
C931        F940   1.379       .  S
C931        F941   1.378       .  S
C945        C946   1.401       .  A
C945        C950   1.405       .  A
C945        H955   1.084       .  S
C946        C951   1.479       .  S
C946        C947   1.415       .  A
C947        C948   1.404       .  A
C947        C952   1.521       .  S
C948        C949   1.406       .  A
C948        H953   1.083       .  S
C949        C950   1.420       .  A
C950        C954   1.518       .  S
C951        C956   1.414       .  A
C951        C960   1.400       .  A
C952        F968   1.382       .  S
C952        F969   1.382       .  S
C952        F970   1.384       .  S
C954        F965   1.384       .  S
C954        F966   1.385       .  S
C954        F967   1.383       .  S
C956        C957   1.407   1_556  A
C956        C961   1.518       .  S
C957        C958   1.404   1_554  A
C957        H962   1.083       .  S
C958        C959   1.419       .  A
C959        C960   1.401       .  A
C959        C963   1.522       .  S
C960        H964   1.084       .  S
C961        F974   1.385   1_556  S
C961        F975   1.382       .  S
C961        F976   1.382       .  S
C963        F971   1.382       .  S
C963        F972   1.383       .  S
C963        F973   1.385       .  S
C977        C978   1.402       .  A
C977        C982   1.405       .  A
C977        H987   1.083       .  S
C978        C983   1.484       .  S
C978        C979   1.416       .  A
C979        C980   1.406       .  A
C979        C984   1.519       .  S
C980        C981   1.404       .  A
C980        H985   1.083   1_455  S
C981        C982   1.419       .  A
C982        C986   1.520       .  S
C983        C988   1.413       .  A
C983        C992   1.399       .  A
C984       F1000   1.381       .  S
C984       F1001   1.382       .  S
C984       F1002   1.385       .  S
C986        F997   1.385       .  S
C986        F998   1.383       .  S
C986        F999   1.383   1_455  S
C988        C989   1.407       .  A
C988        C993   1.519       .  S
C989        C990   1.411       .  A
C989        H994   1.083       .  S
C990        C991   1.426       .  A
C991        C992   1.405       .  A
C991        C995   1.522       .  S
C992        H996   1.083       .  S
C993       F1006   1.384       .  S
C993       F1007   1.381       .  S
C993       F1008   1.383       .  S
C995       F1003   1.381       .  S
C995       F1004   1.384       .  S
C995       F1005   1.385       .  S
C1009      C1010   1.400       .  A
C1009      C1014   1.407       .  A
C1009      H1019   1.083       .  S
C1010      C1015   1.477       .  S
C1010      C1011   1.414       .  A
C1011      C1012   1.401       .  A
C1011      C1016   1.522       .  S
C1012      C1013   1.405       .  A
C1012      H1017   1.083       .  S
C1013      C1014   1.420       .  A
C1014      C1018   1.517       .  S
C1015      C1020   1.413       .  A
C1015      C1024   1.401       .  A
C1016      F1032   1.382       .  S
C1016      F1033   1.383       .  S
C1016      F1034   1.385       .  S
C1018      F1029   1.383       .  S
C1018      F1030   1.385       .  S
C1018      F1031   1.383       .  S
C1020      C1021   1.401       .  A
C1020      C1025   1.521       .  S
C1021      C1022   1.402       .  A
C1021      H1026   1.073       .  S
C1022      C1023   1.419       .  A
C1023      C1024   1.408       .  A
C1023      C1027   1.518       .  S
C1024      H1028   1.082       .  S
C1025      F1038   1.382       .  S
C1025      F1039   1.382       .  S
C1025      F1040   1.382       .  S
C1027      F1035   1.385       .  S
C1027      F1036   1.383       .  S
C1027      F1037   1.383       .  S
C1041      C1042   1.400       .  A
C1041      C1046   1.409       .  A
C1041      H1051   1.083       .  S
C1042      C1047   1.480       .  S
C1042      C1043   1.414       .  A
C1043      C1044   1.403       .  A
C1043      C1048   1.522       .  S
C1044      C1045   1.408       .  A
C1044      H1049   1.082       .  S
C1045      C1046   1.426       .  A
C1046      C1050   1.520       .  S
C1047      C1052   1.414       .  A
C1047      C1056   1.403       .  A
C1048      F1064   1.382       .  S
C1048      F1065   1.382       .  S
C1048      F1066   1.384       .  S
C1050      F1061   1.385       .  S
C1050      F1062   1.383       .  S
C1050      F1063   1.384       .  S
C1052      C1053   1.407   1_556  A
C1052      C1057   1.518   1_556  S
C1053      C1054   1.402   1_554  A
C1053      H1058   1.080       .  S
C1054      C1055   1.412       .  A
C1055      C1056   1.404       .  A
C1055      C1059   1.518       .  S
C1056      H1060   1.083       .  S
C1057      F1070   1.385       .  S
C1057      F1071   1.382   1_554  S
C1057      F1072   1.382   1_554  S
C1059      F1067   1.383       .  S
C1059      F1068   1.382       .  S
C1059      F1069   1.385       .  S
C1073      C1074   1.400       .  A
C1073      C1078   1.408       .  A
C1073      H1083   1.083       .  S
C1074      C1079   1.472       .  S
C1074      C1075   1.413       .  A
C1075      C1076   1.398       .  A
C1075      C1080   1.524       .  S
C1076      C1077   1.407       .  A
C1076      H1081   1.083       .  S
C1077      C1078   1.421       .  A
C1078      C1082   1.518       .  S
C1079      C1084   1.413       .  A
C1079      C1088   1.397       .  A
C1080      F1096   1.382       .  S
C1080      F1097   1.382       .  S
C1080      F1098   1.385       .  S
C1082      F1093   1.382       .  S
C1082      F1094   1.385       .  S
C1082      F1095   1.384       .  S
C1084      C1085   1.405       .  A
C1084      C1089   1.520       .  S
C1085      C1086   1.405       .  A
C1085      H1090   1.083       .  S
C1086      C1087   1.418       .  A
C1087      C1088   1.401       .  A
C1087      C1091   1.514       .  S
C1088      H1092   1.084       .  S
C1089      F1102   1.384       .  S
C1089      F1103   1.382       .  S
C1089      F1104   1.382       .  S
C1091      F1099   1.385       .  S
C1091      F1100   1.384   1_556  S
C1091      F1101   1.382       .  S
C1105      C1106   1.400       .  A
C1105      C1110   1.408       .  A
C1105      H1115   1.083       .  S
C1106      C1111   1.488       .  S
C1106      C1107   1.414       .  A
C1107      C1108   1.409       .  A
C1107      C1112   1.518       .  S
C1108      C1109   1.409       .  A
C1108      H1113   1.083       .  S
C1109      C1110   1.423       .  A
C1110      C1114   1.520       .  S
C1111      C1116   1.415       .  A
C1111      C1120   1.405       .  A
C1112      F1128   1.382       .  S
C1112      F1129   1.382       .  S
C1112      F1130   1.385       .  S
C1114      F1125   1.384       .  S
C1114      F1126   1.385       .  S
C1114      F1127   1.383       .  S
C1116      C1117   1.403       .  A
C1116      C1121   1.523       .  S
C1117      C1118   1.407       .  A
C1117      H1122   1.083       .  S
C1118      C1119   1.421       .  A
C1119      C1120   1.414       .  A
C1119      C1123   1.518       .  S
C1120      H1124   1.083       .  S
C1121      F1134   1.384       .  S
C1121      F1135   1.382       .  S
C1121      F1136   1.382       .  S
C1123      F1131   1.382       .  S
C1123      F1132   1.384       .  S
C1123      F1133   1.385       .  S
C1137      C1138   1.400       .  A
C1137      C1142   1.401       .  A
C1137      H1147   1.084       .  S
C1138      C1143   1.481       .  S
C1138      C1139   1.414       .  A
C1139      C1140   1.410       .  A
C1139      C1144   1.517       .  S
C1140      C1141   1.408       .  A
C1140      H1145   1.083       .  S
C1141      C1142   1.420       .  A
C1142      C1146   1.522       .  S
C1143      C1148   1.416       .  A
C1143      C1152   1.401       .  A
C1144      F1160   1.383       .  S
C1144      F1161   1.381       .  S
C1144      F1162   1.385       .  S
C1146      F1157   1.382       .  S
C1146      F1158   1.385       .  S
C1146      F1159   1.384       .  S
C1148      C1149   1.405       .  A
C1148      C1153   1.522       .  S
C1149      C1150   1.406       .  A
C1149      H1154   1.083       .  S
C1150      C1151   1.421       .  A
C1151      C1152   1.407       .  A
C1151      C1155   1.519       .  S
C1152      H1156   1.083       .  S
C1153      F1166   1.385       .  S
C1153      F1167   1.382       .  S
C1153      F1168   1.381       .  S
C1155      F1163   1.385       .  S
C1155      F1164   1.384       .  S
C1155      F1165   1.382       .  S
C1169      C1170   1.401       .  A
C1169      C1174   1.408       .  A
C1169      H1179   1.083       .  S
C1170      C1175   1.476       .  S
C1170      C1171   1.417       .  A
C1171      C1172   1.401       .  A
C1171      C1176   1.522       .  S
C1172      C1173   1.400       .  A
C1172      H1177   1.084       .  S
C1173      C1174   1.415       .  A
C1174      C1178   1.514       .  S
C1175      C1180   1.412       .  A
C1175      C1184   1.400       .  A
C1176      F1192   1.382       .  S
C1176      F1193   1.382       .  S
C1176      F1194   1.384       .  S
C1178      F1189   1.383       .  S
C1178      F1190   1.384       .  S
C1178      F1191   1.383       .  S
C1180      C1181   1.407       .  A
C1180      C1185   1.517       .  S
C1181      C1182   1.406       .  A
C1181      H1186   1.083       .  S
C1182      C1183   1.417       .  A
C1183      C1184   1.401       .  A
C1183      C1187   1.518       .  S
C1184      H1188   1.084       .  S
C1185      F1198   1.384       .  S
C1185      F1199   1.383       .  S
C1185      F1200   1.382       .  S
C1187      F1195   1.385       .  S
C1187      F1196   1.384       .  S
C1187      F1197   1.382       .  S
C1201      C1202   1.405       .  A
C1201      C1206   1.405       .  A
C1201      H1211   1.083       .  S
C1202      C1207   1.480       .  S
C1202      C1203   1.418       .  A
C1203      C1204   1.405       .  A
C1203      C1208   1.519       .  S
C1204      C1205   1.403       .  A
C1204      H1209   1.085       .  S
C1205      C1206   1.412       .  A
C1206      C1210   1.519       .  S
C1207      C1212   1.412       .  A
C1207      C1216   1.399       .  A
C1208      F1224   1.383       .  S
C1208      F1225   1.382       .  S
C1208      F1226   1.383       .  S
C1210      F1221   1.382       .  S
C1210      F1222   1.384       .  S
C1210      F1223   1.384       .  S
C1212      C1213   1.407       .  A
C1212      C1217   1.517       .  S
C1213      C1214   1.406       .  A
C1213      H1218   1.084       .  S
C1214      C1215   1.422       .  A
C1215      C1216   1.405       .  A
C1215      C1219   1.520       .  S
C1216      H1220   1.084       .  S
C1217      F1230   1.384       .  S
C1217      F1231   1.382       .  S
C1217      F1232   1.383       .  S
C1219      F1227   1.385       .  S
C1219      F1228   1.382       .  S
C1219      F1229   1.383       .  S
C1233      C1234   1.401       .  A
C1233      C1238   1.406       .  A
C1233      H1243   1.083       .  S
C1234      C1239   1.475       .  S
C1234      C1235   1.416       .  A
C1235      C1236   1.403       .  A
C1235      C1240   1.522       .  S
C1236      C1237   1.403       .  A
C1236      H1241   1.084       .  S
C1237      C1238   1.419       .  A
C1238      C1242   1.519       .  S
C1239      C1244   1.415       .  A
C1239      C1248   1.398       .  A
C1240      F1256   1.382       .  S
C1240      F1257   1.381       .  S
C1240      F1258   1.385       .  S
C1242      F1253   1.385       .  S
C1242      F1254   1.384       .  S
C1242      F1255   1.382       .  S
C1244      C1245   1.410       .  A
C1244      C1249   1.517       .  S
C1245      C1246   1.403       .  A
C1245      H1250   1.083       .  S
C1246      C1247   1.416       .  A
C1247      C1248   1.396       .  A
C1247      C1251   1.520       .  S
C1248      H1252   1.084       .  S
C1249      F1262   1.385       .  S
C1249      F1263   1.382       .  S
C1249      F1264   1.381       .  S
C1251      F1259   1.381       .  S
C1251      F1260   1.382       .  S
C1251      F1261   1.385       .  S
C1265      C1266   1.402       .  A
C1265      C1270   1.406       .  A
C1265      H1275   1.083       .  S
C1266      C1271   1.487       .  S
C1266      C1267   1.416       .  A
C1267      C1268   1.408       .  A
C1267      C1272   1.519       .  S
C1268      C1269   1.405       .  A
C1268      H1273   1.083       .  S
C1269      C1270   1.421       .  A
C1270      C1274   1.521       .  S
C1271      C1276   1.414       .  A
C1271      C1280   1.399       .  A
C1272      F1288   1.382       .  S
C1272      F1289   1.381       .  S
C1272      F1290   1.385       .  S
C1274      F1285   1.385       .  S
C1274      F1286   1.383       .  S
C1274      F1287   1.382       .  S
C1276      C1277   1.410       .  A
C1276      C1281   1.519       .  S
C1277      C1278   1.410       .  A
C1277      H1282   1.083       .  S
C1278      C1279   1.428       .  A
C1279      C1280   1.407       .  A
C1279      C1283   1.523       .  S
C1280      H1284   1.083       .  S
C1281      F1294   1.384       .  S
C1281      F1295   1.382       .  S
C1281      F1296   1.381       .  S
C1283      F1291   1.384       .  S
C1283      F1292   1.383       .  S
C1283      F1293   1.385       .  S
C1297      C1298   1.401       .  A
C1297      C1302   1.409       .  A
C1297      H1307   1.083       .  S
C1298      C1303   1.483       .  S
C1298      C1299   1.415       .  A
C1299      C1300   1.402       .  A
C1299      C1304   1.522       .  S
C1300      C1301   1.405       .  A
C1300      H1305   1.083       .  S
C1301      C1302   1.422       .  A
C1302      C1306   1.520       .  S
C1303      C1308   1.417       .  A
C1303      C1312   1.402       .  A
C1304      F1320   1.382       .  S
C1304      F1321   1.383       .  S
C1304      F1322   1.385       .  S
C1306      F1317   1.384       .  S
C1306      F1318   1.385       .  S
C1306      F1319   1.383       .  S
C1308      C1309   1.403       .  A
C1308      C1313   1.521       .  S
C1309      C1310   1.402       .  A
C1309      H1314   1.084       .  S
C1310      C1311   1.418       .  A
C1311      C1312   1.408       .  A
C1311      C1315   1.519       .  S
C1312      H1316   1.083       .  S
C1313      F1326   1.385       .  S
C1313      F1327   1.382       .  S
C1313      F1328   1.383       .  S
C1315      F1323   1.382       .  S
C1315      F1324   1.384       .  S
C1315      F1325   1.385       .  S
C1329      C1330   1.404       .  A
C1329      C1334   1.410       .  A
C1329      H1339   1.083       .  S
C1330      C1335   1.488       .  S
C1330      C1331   1.418       .  A
C1331      C1332   1.407       .  A
C1331      C1336   1.520       .  S
C1332      C1333   1.401       .  A
C1332      H1337   1.083       .  S
C1333      C1334   1.415       .  A
C1334      C1338   1.516       .  S
C1335      C1340   1.415       .  A
C1335      C1344   1.401       .  A
C1336      F1352   1.382       .  S
C1336      F1353   1.382       .  S
C1336      F1354   1.385       .  S
C1338      F1349   1.385       .  S
C1338      F1350   1.383       .  S
C1338      F1351   1.382       .  S
C1340      C1341   1.408       .  A
C1340      C1345   1.521       .  S
C1341      C1342   1.408       .  A
C1341      H1346   1.082       .  S
C1342      C1343   1.423       .  A
C1343      C1344   1.410       .  A
C1343      C1347   1.518       .  S
C1344      H1348   1.083       .  S
C1345      F1358   1.384       .  S
C1345      F1359   1.382       .  S
C1345      F1360   1.382       .  S
C1347      F1355   1.384       .  S
C1347      F1356   1.382       .  S
C1347      F1357   1.385       .  S
C1361      C1362   1.405       .  A
C1361      C1366   1.413       .  A
C1361      H1371   1.083       .  S
C1362      C1367   1.494       .  S
C1362      C1363   1.419       .  A
C1363      C1364   1.408       .  A
C1363      C1368   1.520       .  S
C1364      C1365   1.402       .  A
C1364      H1369   1.083       .  S
C1365      C1366   1.416       .  A
C1366      C1370   1.515       .  S
C1367      C1372   1.413       .  A
C1367      C1376   1.401       .  A
C1368      F1384   1.382       .  S
C1368      F1385   1.383       .  S
C1368      F1386   1.385       .  S
C1370      F1381   1.383       .  S
C1370      F1382   1.384       .  S
C1370      F1383   1.383       .  S
C1372      C1373   1.410       .  A
C1372      C1377   1.518       .  S
C1373      C1374   1.412       .  A
C1373      H1378   1.082       .  S
C1374      C1375   1.429       .  A
C1375      C1376   1.413       .  A
C1375      C1379   1.520       .  S
C1376      H1380   1.083       .  S
C1377      F1390   1.384       .  S
C1377      F1391   1.383       .  S
C1377      F1392   1.383       .  S
C1379      F1387   1.384       .  S
C1379      F1388   1.383       .  S
C1379      F1389   1.385       .  S
C1393      C1394   1.401       .  A
C1393      C1398   1.410       .  A
C1393      H1403   1.083       .  S
C1394      C1399   1.482       .  S
C1394      C1395   1.416       .  A
C1395      C1396   1.403       .  A
C1395      C1400   1.522       .  S
C1396      C1397   1.404       .  A
C1396      H1401   1.083       .  S
C1397      C1398   1.422       .  A
C1398      C1402   1.519       .  S
C1399      C1404   1.415       .  A
C1399      C1408   1.400       .  A
C1400      F1416   1.382       .  S
C1400      F1417   1.382       .  S
C1400      F1418   1.385       .  S
C1402      F1413   1.382       .  S
C1402      F1414   1.385       .  S
C1402      F1415   1.383       .  S
C1404      C1405   1.407       .  A
C1404      C1409   1.519       .  S
C1405      C1406   1.405       .  A
C1405      H1410   1.083       .  S
C1406      C1407   1.419       .  A
C1407      C1408   1.403       .  A
C1407      C1411   1.517       .  S
C1408      H1412   1.085       .  S
C1409      F1422   1.385       .  S
C1409      F1423   1.383       .  S
C1409      F1424   1.382       .  S
C1411      F1419   1.384       .  S
C1411      F1420   1.381       .  S
C1411      F1421   1.383       .  S
C1425      C1426   1.403       .  A
C1425      C1430   1.414       .  A
C1425      H1435   1.083       .  S
C1426      C1431   1.489       .  S
C1426      C1427   1.414       .  A
C1427      C1428   1.405       .  A
C1427      C1432   1.523       .  S
C1428      C1429   1.410       .  A
C1428      H1433   1.083       .  S
C1429      C1430   1.422       .  A
C1430      C1434   1.518       .  S
C1431      C1436   1.413       .  A
C1431      C1440   1.401       .  A
C1432      F1448   1.382       .  S
C1432      F1449   1.382       .  S
C1432      F1450   1.385       .  S
C1434      F1445   1.385       .  S
C1434      F1446   1.384       .  S
C1434      F1447   1.382       .  S
C1436      C1437   1.408       .  A
C1436      C1441   1.519       .  S
C1437      C1438   1.409       .  A
C1437      H1442   1.082       .  S
C1438      C1439   1.426       .  A
C1439      C1440   1.411       .  A
C1439      C1443   1.520       .  S
C1440      H1444   1.083       .  S
C1441      F1454   1.384       .  S
C1441      F1455   1.382       .  S
C1441      F1456   1.382       .  S
C1443      F1451   1.385       .  S
C1443      F1452   1.384       .  S
C1443      F1453   1.383       .  S
C1457      C1458   1.396       .  A
C1457      C1462   1.404       .  A
C1457      H1467   1.083       .  S
C1458      C1463   1.482       .  S
C1458      C1459   1.411       .  A
C1459      C1460   1.408       .  A
C1459      C1464   1.518       .  S
C1460      C1461   1.411       .  A
C1460      H1465   1.082       .  S
C1461      C1462   1.432       .  A
C1462      C1466   1.525       .  S
C1463      C1468   1.416       .  A
C1463      C1472   1.403       .  A
C1464      F1480   1.382       .  S
C1464      F1481   1.382       .  S
C1464      F1482   1.385       .  S
C1466      F1477   1.384       .  S
C1466      F1478   1.385       .  S
C1466      F1479   1.383       .  S
C1468      C1469   1.402       .  A
C1468      C1473   1.522       .  S
C1469      C1470   1.404       .  A
C1469      H1474   1.082       .  S
C1470      C1471   1.420       .  A
C1471      C1472   1.410       .  A
C1471      C1475   1.518       .  S
C1472      H1476   1.083       .  S
C1473      F1486   1.384       .  S
C1473      F1487   1.382       .  S
C1473      F1488   1.382       .  S
C1475      F1483   1.385       .  S
C1475      F1484   1.382       .  S
C1475      F1485   1.384       .  S
C1489      C1490   1.405       .  A
C1489      C1494   1.406       .  A
C1489      H1499   1.082       .  S
C1490      C1495   1.479       .  S
C1490      C1491   1.417       .  A
C1491      C1492   1.403       .  A
C1491      C1496   1.519       .  S
C1492      C1493   1.401       .  A
C1492      H1497   1.077       .  S
C1493      C1494   1.414       .  A
C1494      C1498   1.519       .  S
C1495      C1500   1.413       .  A
C1495      C1504   1.399       .  A
C1496      F1512   1.383       .  S
C1496      F1513   1.381       .  S
C1496      F1514   1.383       .  S
C1498      F1509   1.382       .  S
C1498      F1510   1.385       .  S
C1498      F1511   1.383       .  S
C1500      C1501   1.407       .  A
C1500      C1505   1.517       .  S
C1501      C1502   1.405       .  A
C1501      H1506   1.083       .  S
C1502      C1503   1.422       .  A
C1503      C1504   1.405       .  A
C1503      C1507   1.520       .  S
C1504      H1508   1.083       .  S
C1505      F1518   1.384       .  S
C1505      F1519   1.382       .  S
C1505      F1520   1.383       .  S
C1507      F1515   1.382       .  S
C1507      F1516   1.382       .  S
C1507      F1517   1.385       .  S
C1521      C1522   1.401       .  A
C1521      C1526   1.409       .  A
C1521      H1531   1.083       .  S
C1522      C1527   1.480       .  S
C1522      C1523   1.416       .  A
C1523      C1524   1.402       .  A
C1523      C1528   1.522       .  S
C1524      C1525   1.402       .  A
C1524      H1529   1.083       .  S
C1525      C1526   1.418       .  A
C1526      C1530   1.515       .  S
C1527      C1532   1.413       .  A
C1527      C1536   1.402       .  A
C1528      F1544   1.382       .  S
C1528      F1545   1.383       .  S
C1528      F1546   1.385       .  S
C1530      F1541   1.385       .  S
C1530      F1542   1.382       .  S
C1530      F1543   1.384       .  S
C1532      C1533   1.402       .  A
C1532      C1537   1.520       .  S
C1533      C1534   1.404       .  A
C1533      H1538   1.084       .  S
C1534      C1535   1.418       .  A
C1535      C1536   1.408       .  A
C1535      C1539   1.517       .  S
C1536      H1540   1.083       .  S
C1537      F1550   1.385       .  S
C1537      F1551   1.383       .  S
C1537      F1552   1.383       .  S
C1539      F1547   1.383       .  S
C1539      F1548   1.385       .  S
C1539      F1549   1.383       .  S
C1553      C1554   1.399       .  A
C1553      C1558   1.408       .  A
C1553      H1563   1.083       .  S
C1554      C1559   1.478       .  S
C1554      C1555   1.410       .  A
C1555      C1556   1.403       .  A
C1555      C1560   1.521       .  S
C1556      C1557   1.412       .  A
C1556      H1561   1.082       .  S
C1557      C1558   1.424       .  A
C1558      C1562   1.518       .  S
C1559      C1564   1.416       .  A
C1559      C1568   1.402       .  A
C1560      F1576   1.383       .  S
C1560      F1577   1.383       .  S
C1560      F1578   1.384       .  S
C1562      F1573   1.385       .  S
C1562      F1574   1.384       .  S
C1562      F1575   1.383       .  S
C1564      C1565   1.401       .  A
C1564      C1569   1.522       .  S
C1565      C1566   1.401       .  A
C1565      H1570   1.081       .  S
C1566      C1567   1.416       .  A
C1567      C1568   1.408       .  A
C1567      C1571   1.518       .  S
C1568      H1572   1.083       .  S
C1569      F1582   1.385       .  S
C1569      F1583   1.382       .  S
C1569      F1584   1.382       .  S
C1571      F1579   1.384       .  S
C1571      F1580   1.382       .  S
C1571      F1581   1.384       .  S
C1585      C1586   1.405       .  A
C1585      C1590   1.416       .  A
C1585      H1595   1.083       .  S
C1586      C1591   1.492       .  S
C1586      C1587   1.415       .  A
C1587      C1588   1.405       .  A
C1587      C1592   1.522       .  S
C1588      C1589   1.407       .  A
C1588      H1593   1.083       .  S
C1589      C1590   1.423       .  A
C1590      C1594   1.518       .  S
C1591      C1596   1.414       .  A
C1591      C1600   1.402       .  A
C1592      F1608   1.382       .  S
C1592      F1609   1.382       .  S
C1592      F1610   1.385       .  S
C1594      F1605   1.385       .  S
C1594      F1606   1.382       .  S
C1594      F1607   1.383       .  S
C1596      C1597   1.410       .  A
C1596      C1601   1.518       .  S
C1597      C1598   1.407       .  A
C1597      H1602   1.083       .  S
C1598      C1599   1.423       .  A
C1599      C1600   1.411       .  A
C1599      C1603   1.519       .  S
C1600      H1604   1.083       .  S
C1601      F1614   1.385       .  S
C1601      F1615   1.383       .  S
C1601      F1616   1.382       .  S
C1603      F1611   1.383       .  S
C1603      F1612   1.382       .  S
C1603      F1613   1.384       .  S
C1617      C1618   1.401       .  A
C1617      C1622   1.402       .  A
C1617      H1627   1.086       .  S
C1618      C1623   1.477       .  S
C1618      C1619   1.416       .  A
C1619      C1620   1.404       .  A
C1619      C1624   1.519       .  S
C1620      C1621   1.401       .  A
C1620      H1625   1.085       .  S
C1621      C1622   1.415       .  A
C1622      C1626   1.518       .  S
C1623      C1628   1.412       .  A
C1623      C1632   1.396       .  A
C1624      F1640   1.382       .  S
C1624      F1641   1.382       .  S
C1624      F1642   1.385       .  S
C1626      F1637   1.383       .  S
C1626      F1638   1.384       .  S
C1626      F1639   1.384       .  S
C1628      C1629   1.401       .  A
C1628      C1633   1.523       .  S
C1629      C1630   1.411       .  A
C1629      H1634   1.088       .  S
C1630      C1631   1.430       .  A
C1631      C1632   1.408       .  A
C1631      C1635   1.520       .  S
C1632      H1636   1.093       .  S
C1633      F1646   1.385       .  S
C1633      F1647   1.382       .  S
C1633      F1648   1.382       .  S
C1635      F1643   1.385       .  S
C1635      F1644   1.383       .  S
C1635      F1645   1.383       .  S
C1649      C1650   1.398       .  A
C1649      C1654   1.406       .  A
C1649      H1659   1.083       .  S
C1650      C1655   1.483       .  S
C1650      C1651   1.413       .  A
C1651      C1652   1.408       .  A
C1651      C1656   1.521       .  S
C1652      C1653   1.412       .  A
C1652      H1657   1.082       .  S
C1653      C1654   1.427       .  A
C1654      C1658   1.521       .  S
C1655      C1660   1.417       .  A
C1655      C1664   1.401       .  A
C1656      F1672   1.382       .  S
C1656      F1673   1.382       .  S
C1656      F1674   1.385       .  S
C1658      F1669   1.385       .  S
C1658      F1670   1.384       .  S
C1658      F1671   1.383       .  S
C1660      C1661   1.409       .  A
C1660      C1665   1.518       .  S
C1661      C1662   1.402       .  A
C1661      H1666   1.083       .  S
C1662      C1663   1.415       .  A
C1663      C1664   1.403       .  A
C1663      C1667   1.520       .  S
C1664      H1668   1.084       .  S
C1665      F1678   1.384       .  S
C1665      F1679   1.382       .  S
C1665      F1680   1.382       .  S
C1667      F1675   1.384       .  S
C1667      F1676   1.382       .  S
C1667      F1677   1.383       .  S
C1681      C1682   1.402       .  A
C1681      C1686   1.410       .  A
C1681      H1691   1.083       .  S
C1682      C1687   1.480       .  S
C1682      C1683   1.414       .  A
C1683      C1684   1.402       .  A
C1683      C1688   1.523       .  S
C1684      C1685   1.406       .  A
C1684      H1689   1.080       .  S
C1685      C1686   1.420       .  A
C1686      C1690   1.518       .  S
C1687      C1692   1.413       .  A
C1687      C1696   1.402       .  A
C1688      F1704   1.382       .  S
C1688      F1705   1.382       .  S
C1688      F1706   1.385       .  S
C1690      F1701   1.382       .  S
C1690      F1702   1.385       .  S
C1690      F1703   1.383       .  S
C1692      C1693   1.403       .  A
C1692      C1697   1.520       .  S
C1693      C1694   1.405       .  A
C1693      H1698   1.083       .  S
C1694      C1695   1.419       .  A
C1695      C1696   1.408       .  A
C1695      C1699   1.519       .  S
C1696      H1700   1.083       .  S
C1697      F1710   1.385       .  S
C1697      F1711   1.382       .  S
C1697      F1712   1.382       .  S
C1699      F1707   1.385       .  S
C1699      F1708   1.384       .  S
C1699      F1709   1.381       .  S
C1713      C1714   1.402       .  A
C1713      C1718   1.403       .  A
C1713      H1723   1.084       .  S
C1714      C1719   1.486       .  S
C1714      C1715   1.417       .  A
C1715      C1716   1.409       .  A
C1715      C1720   1.517       .  S
C1716      C1717   1.404       .  A
C1716      H1721   1.084       .  S
C1717      C1718   1.416       .  A
C1718      C1722   1.519       .  S
C1719      C1724   1.418       .  A
C1719      C1728   1.403       .  A
C1720      F1736   1.382       .  S
C1720      F1737   1.383       .  S
C1720      F1738   1.385       .  S
C1722      F1733   1.385       .  S
C1722      F1734   1.381       .  S
C1722      F1735   1.383       .  S
C1724      C1725   1.407       .  A
C1724      C1729   1.520       .  S
C1725      C1726   1.406       .  A
C1725      H1730   1.083       .  S
C1726      C1727   1.416       .  A
C1727      C1728   1.404       .  A
C1727      C1731   1.516       .  S
C1728      H1732   1.083       .  S
C1729      F1742   1.385       .  S
C1729      F1743   1.381       .  S
C1729      F1744   1.383       .  S
C1731      F1739   1.382       .  S
C1731      F1740   1.384       .  S
C1731      F1741   1.385       .  S
C1745      C1746   1.406       .  A
C1745      C1750   1.414       .  A
C1745      H1755   1.083       .  S
C1746      C1751   1.490       .  S
C1746      C1747   1.416       .  A
C1747      C1748   1.405       .  A
C1747      C1752   1.522       .  S
C1748      C1749   1.405       .  A
C1748      H1753   1.084       .  S
C1749      C1750   1.417       .  A
C1750      C1754   1.517       .  S
C1751      C1756   1.414       .  A
C1751      C1760   1.399       .  A
C1752      F1768   1.382       .  S
C1752      F1769   1.381       .  S
C1752      F1770   1.385       .  S
C1754      F1765   1.384       .  S
C1754      F1766   1.383       .  S
C1754      F1767   1.383       .  S
C1756      C1757   1.412       .  A
C1756      C1761   1.519       .  S
C1757      C1758   1.410       .  A
C1757      H1762   1.083       .  S
C1758      C1759   1.426       .  A
C1759      C1760   1.409       .  A
C1759      C1763   1.520       .  S
C1760      H1764   1.083       .  S
C1761      F1774   1.384       .  S
C1761      F1775   1.383       .  S
C1761      F1776   1.382       .  S
C1763      F1771   1.383       .  S
C1763      F1772   1.383       .  S
C1763      F1773   1.385       .  S
C1777      C1778   1.401       .  A
C1777      C1782   1.410       .  A
C1777      H1787   1.083       .  S
C1778      C1783   1.474       .  S
C1778      C1779   1.413       .  A
C1779      C1780   1.396       .  A
C1779      C1784   1.525       .  S
C1780      C1781   1.408       .  A
C1780      H1785   1.083       .  S
C1781      C1782   1.422       .  A
C1782      C1786   1.518       .  S
C1783      C1788   1.411       .  A
C1783      C1792   1.397       .  A
C1784      F1800   1.382       .  S
C1784      F1801   1.381       .  S
C1784      F1802   1.385       .  S
C1786      F1797   1.383       .  S
C1786      F1798   1.385       .  S
C1786      F1799   1.383       .  S
C1788      C1789   1.406       .  A
C1788      C1793   1.517       .  S
C1789      C1790   1.407       .  A
C1789      H1794   1.083       .  S
C1790      C1791   1.418       .  A
C1791      C1792   1.400       .  A
C1791      C1795   1.513       .  S
C1792      H1796   1.085       .  S
C1793      F1806   1.384       .  S
C1793      F1807   1.383       .  S
C1793      F1808   1.382       .  S
C1795      F1803   1.384       .  S
C1795      F1804   1.382       .  S
C1795      F1805   1.383       .  S
C1809      C1810   1.406       .  A
C1809      C1814   1.413       .  A
C1809      H1819   1.083       .  S
C1810      C1815   1.480       .  S
C1810      C1811   1.418       .  A
C1811      C1812   1.397       .  A
C1811      C1816   1.522       .  S
C1812      C1813   1.400       .  A
C1812      H1817   1.086       .  S
C1813      C1814   1.415       .  A
C1814      C1818   1.516       .  S
C1815      C1820   1.413       .  A
C1815      C1824   1.399       .  A
C1816      F1832   1.383       .  S
C1816      F1833   1.380       .  S
C1816      F1834   1.384       .  S
C1818      F1829   1.382       .  S
C1818      F1830   1.385       .  S
C1818      F1831   1.383       .  S
C1820      C1821   1.410       .  A
C1820      C1825   1.515       .  S
C1821      C1822   1.408       .  A
C1821      H1826   1.083       .  S
C1822      C1823   1.424       .  A
C1823      C1824   1.403       .  A
C1823      C1827   1.521       .  S
C1824      H1828   1.084       .  S
C1825      F1838   1.384       .  S
C1825      F1839   1.383       .  S
C1825      F1840   1.383       .  S
C1827      F1835   1.385       .  S
C1827      F1836   1.384       .  S
C1827      F1837   1.382       .  S
C1841      C1842   1.400       .  A
C1841      C1846   1.405       .  A
C1841      H1851   1.083       .  S
C1842      C1847   1.478       .  S
C1842      C1843   1.416       .  A
C1843      C1844   1.404       .  A
C1843      C1848   1.521       .  S
C1844      C1845   1.404       .  A
C1844      H1849   1.083       .  S
C1845      C1846   1.419       .  A
C1846      C1850   1.517       .  S
C1847      C1852   1.412       .  A
C1847      C1856   1.400       .  A
C1848      F1864   1.382       .  S
C1848      F1865   1.381       .  S
C1848      F1866   1.384       .  S
C1850      F1861   1.384       .  S
C1850      F1862   1.385       .  S
C1850      F1863   1.382       .  S
C1852      C1853   1.407       .  A
C1852      C1857   1.518       .  S
C1853      C1854   1.404       .  A
C1853      H1858   1.082       .  S
C1854      C1855   1.418       .  A
C1855      C1856   1.400       .  A
C1855      C1859   1.520       .  S
C1856      H1860   1.086       .  S
C1857      F1870   1.384       .  S
C1857      F1871   1.382       .  S
C1857      F1872   1.382       .  S
C1859      F1867   1.383       .  S
C1859      F1868   1.379       .  S
C1859      F1869   1.384       .  S
C1873      C1874   1.405       .  A
C1873      C1878   1.410       .  A
C1873      H1883   1.083       .  S
C1874      C1879   1.479       .  S
C1874      C1875   1.417       .  A
C1875      C1876   1.401       .  A
C1875      C1880   1.522       .  S
C1876      C1877   1.401       .  A
C1876      H1881   1.084       .  S
C1877      C1878   1.413       .  A
C1878      C1882   1.517       .  S
C1879      C1884   1.413       .  A
C1879      C1888   1.399       .  A
C1880      F1896   1.382       .  S
C1880      F1897   1.381       .  S
C1880      F1898   1.385       .  S
C1882      F1893   1.383       .  S
C1882      F1894   1.384       .  S
C1882      F1895   1.383       .  S
C1884      C1885   1.409       .  A
C1884      C1889   1.518       .  S
C1885      C1886   1.407       .  A
C1885      H1890   1.083       .  S
C1886      C1887   1.422       .  A
C1887      C1888   1.402       .  A
C1887      C1891   1.520       .  S
C1888      H1892   1.084       .  S
C1889      F1902   1.384       .  S
C1889      F1903   1.382       .  S
C1889      F1904   1.382       .  S
C1891      F1899   1.385       .  S
C1891      F1900   1.384       .  S
C1891      F1901   1.383       .  S
C1905      C1906   1.402       .  A
C1905      C1910   1.409       .  A
C1905      H1915   1.083       .  S
C1906      C1911   1.488       .  S
C1906      C1907   1.418       .  A
C1907      C1908   1.406       .  A
C1907      C1912   1.521       .  S
C1908      C1909   1.403       .  A
C1908      H1913   1.082       .  S
C1909      C1910   1.421       .  A
C1910      C1914   1.520       .  S
C1911      C1916   1.417       .  A
C1911      C1920   1.404       .  A
C1912      F1928   1.382       .  S
C1912      F1929   1.383       .  S
C1912      F1930   1.384       .  S
C1914      F1925   1.383       .  S
C1914      F1926   1.385       .  S
C1914      F1927   1.383       .  S
C1916      C1917   1.403       .  A
C1916      C1921   1.523       .  S
C1917      C1918   1.405       .  A
C1917      H1922   1.083       .  S
C1918      C1919   1.419       .  A
C1919      C1920   1.411       .  A
C1919      C1923   1.517       .  S
C1920      H1924   1.082       .  S
C1921      F1934   1.385       .  S
C1921      F1935   1.381       .  S
C1921      F1936   1.383       .  S
C1923      F1931   1.385       .  S
C1923      F1932   1.383       .  S
C1923      F1933   1.383       .  S
C1937      C1938   1.397       .  A
C1937      C1942   1.404       .  A
C1937      H1947   1.083       .  S
C1938      C1943   1.485       .  S
C1938      C1939   1.415       .  A
C1939      C1940   1.410       .  A
C1939      C1944   1.519       .  S
C1940      C1941   1.409       .  A
C1940      H1945   1.083       .  S
C1941      C1942   1.428       .  A
C1942      C1946   1.522       .  S
C1943      C1948   1.415       .  A
C1943      C1952   1.399       .  A
C1944      F1960   1.382       .  S
C1944      F1961   1.382   1_455  S
C1944      F1962   1.385       .  S
C1946      F1957   1.385       .  S
C1946      F1958   1.383       .  S
C1946      F1959   1.382       .  S
C1948      C1949   1.410   1_455  A
C1948      C1953   1.518       .  S
C1949      C1950   1.406       .  A
C1949      H1954   1.083       .  S
C1950      C1951   1.425   1_655  A
C1951      C1952   1.405       .  A
C1951      C1955   1.523       .  S
C1952      H1956   1.083       .  S
C1953      F1966   1.384   1_455  S
C1953      F1967   1.382       .  S
C1953      F1968   1.382       .  S
C1955      F1963   1.385       .  S
C1955      F1964   1.384       .  S
C1955      F1965   1.383   1_455  S
C1969      C1970   1.404       .  A
C1969      C1974   1.407       .  A
C1969      H1979   1.084       .  S
C1970      C1975   1.489       .  S
C1970      C1971   1.415       .  A
C1971      C1972   1.409       .  A
C1971      C1976   1.518       .  S
C1972      C1973   1.405       .  A
C1972      H1977   1.083       .  S
C1973      C1974   1.416       .  A
C1974      C1978   1.516       .  S
C1975      C1980   1.415       .  A
C1975      C1984   1.402       .  A
C1976      F1992   1.382       .  S
C1976      F1993   1.382       .  S
C1976      F1994   1.384       .  S
C1978      F1989   1.382       .  S
C1978      F1990   1.385       .  S
C1978      F1991   1.384       .  S
C1980      C1981   1.404       .  A
C1980      C1985   1.523       .  S
C1981      C1982   1.409       .  A
C1981      H1986   1.082       .  S
C1982      C1983   1.425       .  A
C1983      C1984   1.414       .  A
C1983      C1987   1.517       .  S
C1984      H1988   1.082       .  S
C1985      F1998   1.384       .  S
C1985      F1999   1.382       .  S
C1985      F2000   1.383       .  S
C1987      F1995   1.385       .  S
C1987      F1996   1.380       .  S
C1987      F1997   1.383       .  S
C2001      C2002   1.401       .  A
C2001      C2006   1.412       .  A
C2001      H2011   1.083       .  S
C2002      C2007   1.482       .  S
C2002      C2003   1.414       .  A
C2003      C2004   1.403       .  A
C2003      C2008   1.524       .  S
C2004      C2005   1.409       .  A
C2004      H2009   1.080       .  S
C2005      C2006   1.424       .  A
C2006      C2010   1.518       .  S
C2007      C2012   1.415       .  A
C2007      C2016   1.401       .  A
C2008      F2024   1.382       .  S
C2008      F2025   1.381       .  S
C2008      F2026   1.385       .  S
C2010      F2021   1.385       .  S
C2010      F2022   1.384       .  S
C2010      F2023   1.382       .  S
C2012      C2013   1.410       .  A
C2012      C2017   1.518       .  S
C2013      C2014   1.404       .  A
C2013      H2018   1.081       .  S
C2014      C2015   1.413       .  A
C2015      C2016   1.403       .  A
C2015      C2019   1.515       .  S
C2016      H2020   1.083       .  S
C2017      F2030   1.385       .  S
C2017      F2031   1.383       .  S
C2017      F2032   1.381       .  S
C2019      F2027   1.383       .  S
C2019      F2028   1.382       .  S
C2019      F2029   1.385       .  S
C2033      C2034   1.399       .  A
C2033      C2038   1.403       .  A
C2033      H2043   1.083       .  S
C2034      C2039   1.481       .  S
C2034      C2035   1.414       .  A
C2035      C2036   1.407       .  A
C2035      C2040   1.519       .  S
C2036      C2037   1.409       .  A
C2036      H2041   1.082       .  S
C2037      C2038   1.426       .  A
C2038      C2042   1.521       .  S
C2039      C2044   1.417       .  A
C2039      C2048   1.399       .  A
C2040      F2056   1.381       .  S
C2040      F2057   1.382       .  S
C2040      F2058   1.385       .  S
C2042      F2053   1.385       .  S
C2042      F2054   1.383       .  S
C2042      F2055   1.384       .  S
C2044      C2045   1.410       .  A
C2044      C2049   1.518       .  S
C2045      C2046   1.405       .  A
C2045      H2050   1.083       .  S
C2046      C2047   1.418       .  A
C2047      C2048   1.399       .  A
C2047      C2051   1.519       .  S
C2048      H2052   1.084       .  S
C2049      F2062   1.384       .  S
C2049      F2063   1.382       .  S
C2049      F2064   1.382       .  S
C2051      F2059   1.385       .  S
C2051      F2060   1.380       .  S
C2051      F2061   1.383       .  S
C2065      C2066   1.401       .  A
C2065      C2070   1.408       .  A
C2065      H2075   1.083       .  S
C2066      C2071   1.489       .  S
C2066      C2067   1.414       .  A
C2067      C2068   1.410       .  A
C2067      C2072   1.518       .  S
C2068      C2069   1.409       .  A
C2068      H2073   1.083       .  S
C2069      C2070   1.424       .  A
C2070      C2074   1.520       .  S
C2071      C2076   1.418   1_455  A
C2071      C2080   1.404       .  A
C2072      F2088   1.382       .  S
C2072      F2089   1.383       .  S
C2072      F2090   1.385       .  S
C2074      F2085   1.383       .  S
C2074      F2086   1.385       .  S
C2074      F2087   1.383       .  S
C2076      C2077   1.407       .  A
C2076      C2081   1.518       .  S
C2077      C2078   1.404       .  A
C2077      H2082   1.082       .  S
C2078      C2079   1.420   1_655  A
C2079      C2080   1.407       .  A
C2079      C2083   1.520       .  S
C2080      H2084   1.085       .  S
C2081      F2094   1.383       .  S
C2081      F2095   1.383       .  S
C2081      F2096   1.382   1_655  S
C2083      F2091   1.384       .  S
C2083      F2092   1.380       .  S
C2083      F2093   1.383       .  S
C2097      C2098   1.404       .  A
C2097      C2102   1.412       .  A
C2097      H2107   1.083       .  S
C2098      C2103   1.492       .  S
C2098      C2099   1.415       .  A
C2099      C2100   1.407       .  A
C2099      C2104   1.521       .  S
C2100      C2101   1.408       .  A
C2100      H2105   1.083       .  S
C2101      C2102   1.421       .  A
C2102      C2106   1.517       .  S
C2103      C2108   1.416       .  A
C2103      C2112   1.405       .  A
C2104      F2120   1.382       .  S
C2104      F2121   1.383       .  S
C2104      F2122   1.384       .  S
C2106      F2117   1.384       .  S
C2106      F2118   1.384       .  S
C2106      F2119   1.382       .  S
C2108      C2109   1.405       .  A
C2108      C2113   1.521       .  S
C2109      C2110   1.407   1_565  A
C2109      H2114   1.083   1_565  S
C2110      C2111   1.420       .  A
C2111      C2112   1.414   1_545  A
C2111      C2115   1.516       .  S
C2112      H2116   1.083       .  S
C2113      F2126   1.385       .  S
C2113      F2127   1.382       .  S
C2113      F2128   1.383       .  S
C2115      F2123   1.385       .  S
C2115      F2124   1.384       .  S
C2115      F2125   1.382       .  S
C2129      C2130   1.404       .  A
C2129      C2134   1.410       .  A
C2129      H2139   1.083       .  S
C2130      C2135   1.479       .  S
C2130      C2131   1.417       .  A
C2131      C2132   1.401       .  A
C2131      C2136   1.523       .  S
C2132      C2133   1.401       .  A
C2132      H2137   1.083       .  S
C2133      C2134   1.415       .  A
C2134      C2138   1.516       .  S
C2135      C2140   1.413       .  A
C2135      C2144   1.399       .  A
C2136      F2152   1.382       .  S
C2136      F2153   1.382       .  S
C2136      F2154   1.385       .  S
C2138      F2149   1.382       .  S
C2138      F2150   1.384       .  S
C2138      F2151   1.384       .  S
C2140      C2141   1.408       .  A
C2140      C2145   1.518       .  S
C2141      C2142   1.408       .  A
C2141      H2146   1.082       .  S
C2142      C2143   1.420       .  A
C2143      C2144   1.403       .  A
C2143      C2147   1.518       .  S
C2144      H2148   1.084       .  S
C2145      F2158   1.385       .  S
C2145      F2159   1.383       .  S
C2145      F2160   1.382       .  S
C2147      F2155   1.385       .  S
C2147      F2156   1.384       .  S
C2147      F2157   1.383       .  S
C2161      C2162   1.400       .  A
C2161      C2166   1.409       .  A
C2161      H2171   1.083       .  S
C2162      C2167   1.491       .  S
C2162      C2163   1.415       .  A
C2163      C2164   1.409       .  A
C2163      C2168   1.519       .  S
C2164      C2165   1.410       .  A
C2164      H2169   1.082       .  S
C2165      C2166   1.427       .  A
C2166      C2170   1.521       .  S
C2167      C2172   1.421       .  A
C2167      C2176   1.405       .  A
C2168      F2184   1.382       .  S
C2168      F2185   1.383       .  S
C2168      F2186   1.385       .  S
C2170      F2181   1.383       .  S
C2170      F2182   1.385       .  S
C2170      F2183   1.383       .  S
C2172      C2173   1.409       .  A
C2172      C2177   1.522       .  S
C2173      C2174   1.402       .  A
C2173      H2178   1.083       .  S
C2174      C2175   1.413       .  A
C2175      C2176   1.409       .  A
C2175      C2179   1.516   1_545  S
C2176      H2180   1.083       .  S
C2177      F2190   1.385       .  S
C2177      F2191   1.382       .  S
C2177      F2192   1.382       .  S
C2179      F2187   1.382       .  S
C2179      F2188   1.384       .  S
C2179      F2189   1.384       .  S
C2193      C2194   1.401       .  A
C2193      C2198   1.407       .  A
C2193      H2203   1.083       .  S
C2194      C2199   1.489       .  S
C2194      C2195   1.417       .  A
C2195      C2196   1.409       .  A
C2195      C2200   1.518       .  S
C2196      C2197   1.404       .  A
C2196      H2201   1.083       .  S
C2197      C2198   1.419       .  A
C2198      C2202   1.518       .  S
C2199      C2204   1.416       .  A
C2199      C2208   1.403       .  A
C2200      F2216   1.383       .  S
C2200      F2217   1.383       .  S
C2200      F2218   1.385       .  S
C2202      F2213   1.384       .  S
C2202      F2214   1.384       .  S
C2202      F2215   1.382       .  S
C2204      C2205   1.405       .  A
C2204      C2209   1.522       .  S
C2205      C2206   1.405       .  A
C2205      H2210   1.081       .  S
C2206      C2207   1.423       .  A
C2207      C2208   1.413       .  A
C2207      C2211   1.519       .  S
C2208      H2212   1.083       .  S
C2209      F2222   1.384       .  S
C2209      F2223   1.382       .  S
C2209      F2224   1.383       .  S
C2211      F2219   1.385       .  S
C2211      F2220   1.384       .  S
C2211      F2221   1.382       .  S
C2225      C2226   1.399       .  A
C2225      C2230   1.404       .  A
C2225      H2235   1.083       .  S
C2226      C2231   1.484       .  S
C2226      C2227   1.417       .  A
C2227      C2228   1.408       .  A
C2227      C2232   1.516       .  S
C2228      C2229   1.405       .  A
C2228      H2233   1.085       .  S
C2229      C2230   1.424       .  A
C2230      C2234   1.521       .  S
C2231      C2236   1.416       .  A
C2231      C2240   1.401       .  A
C2232      F2248   1.383       .  S
C2232      F2249   1.382       .  S
C2232      F2250   1.384       .  S
C2234      F2245   1.382       .  S
C2234      F2246   1.385       .  S
C2234      F2247   1.380       .  S
C2236      C2237   1.406       .  A
C2236      C2241   1.517       .  S
C2237      C2238   1.406       .  A
C2237      H2242   1.085   1_455  S
C2238      C2239   1.424       .  A
C2239      C2240   1.406       .  A
C2239      C2243   1.522       .  S
C2240      H2244   1.084       .  S
C2241      F2254   1.384   1_455  S
C2241      F2255   1.383       .  S
C2241      F2256   1.382       .  S
C2243      F2251   1.383       .  S
C2243      F2252   1.382       .  S
C2243      F2253   1.385       .  S
C2257      C2258   1.401       .  A
C2257      C2262   1.409       .  A
C2257      H2267   1.083       .  S
C2258      C2263   1.489       .  S
C2258      C2259   1.415       .  A
C2259      C2260   1.407       .  A
C2259      C2264   1.519       .  S
C2260      C2261   1.407       .  A
C2260      H2265   1.082       .  S
C2261      C2262   1.425       .  A
C2262      C2266   1.520       .  S
C2263      C2268   1.416       .  A
C2263      C2272   1.404       .  A
C2264      F2280   1.382       .  S
C2264      F2281   1.383       .  S
C2264      F2282   1.384       .  S
C2266      F2277   1.383       .  S
C2266      F2278   1.385       .  S
C2266      F2279   1.384       .  S
C2268      C2269   1.403       .  A
C2268      C2273   1.522       .  S
C2269      C2270   1.406       .  A
C2269      H2274   1.083       .  S
C2270      C2271   1.421       .  A
C2271      C2272   1.414       .  A
C2271      C2275   1.517       .  S
C2272      H2276   1.083       .  S
C2273      F2286   1.384       .  S
C2273      F2287   1.382       .  S
C2273      F2288   1.383       .  S
C2275      F2283   1.385       .  S
C2275      F2284   1.383       .  S
C2275      F2285   1.382       .  S
C2289      C2290   1.403       .  A
C2289      C2294   1.413       .  A
C2289      H2299   1.083       .  S
C2290      C2295   1.477       .  S
C2290      C2291   1.414       .  A
C2291      C2292   1.397       .  A
C2291      C2296   1.525       .  S
C2292      C2293   1.407       .  A
C2292      H2297   1.083       .  S
C2293      C2294   1.422       .  A
C2294      C2298   1.518       .  S
C2295      C2300   1.413       .  A
C2295      C2304   1.398       .  A
C2296      F2312   1.382       .  S
C2296      F2313   1.381       .  S
C2296      F2314   1.385       .  S
C2298      F2309   1.383       .  S
C2298      F2310   1.385       .  S
C2298      F2311   1.383       .  S
C2300      C2301   1.409       .  A
C2300      C2305   1.518       .  S
C2301      C2302   1.407       .  A
C2301      H2306   1.083       .  S
C2302      C2303   1.417       .  A
C2303      C2304   1.401       .  A
C2303      C2307   1.516       .  S
C2304      H2308   1.084       .  S
C2305      F2318   1.384       .  S
C2305      F2319   1.383       .  S
C2305      F2320   1.382       .  S
C2307      F2315   1.384       .  S
C2307      F2316   1.384       .  S
C2307      F2317   1.382       .  S
C2321      C2322   1.401       .  A
C2321      C2326   1.406       .  A
C2321      H2331   1.084       .  S
C2322      C2327   1.486       .  S
C2322      C2323   1.415       .  A
C2323      C2324   1.409       .  A
C2323      C2328   1.520       .  S
C2324      C2325   1.410       .  A
C2324      H2329   1.082       .  S
C2325      C2326   1.425       .  A
C2326      C2330   1.522       .  S
C2327      C2332   1.418       .  A
C2327      C2336   1.404       .  A
C2328      F2344   1.381       .  S
C2328      F2345   1.381       .  S
C2328      F2346   1.385       .  S
C2330      F2341   1.385       .  S
C2330      F2342   1.383       .  S
C2330      F2343   1.383       .  S
C2332      C2333   1.409       .  A
C2332      C2337   1.519       .  S
C2333      C2334   1.401       .  A
C2333      H2338   1.087       .  S
C2334      C2335   1.413       .  A
C2335      C2336   1.405       .  A
C2335      C2339   1.517       .  S
C2336      H2340   1.086       .  S
C2337      F2350   1.385       .  S
C2337      F2351   1.381       .  S
C2337      F2352   1.381       .  S
C2339      F2347   1.385       .  S
C2339      F2348   1.383       .  S
C2339      F2349   1.382       .  S
C2353      C2354   1.402       .  A
C2353      C2358   1.406       .  A
C2353      H2363   1.082       .  S
C2354      C2359   1.481       .  S
C2354      C2355   1.411       .  A
C2355      C2356   1.408       .  A
C2355      C2360   1.519       .  S
C2356      C2357   1.407       .  A
C2356      H2361   1.073       .  S
C2357      C2358   1.417       .  A
C2358      C2362   1.517       .  S
C2359      C2364   1.417       .  A
C2359      C2368   1.402       .  A
C2360      F2376   1.383       .  S
C2360      F2377   1.382       .  S
C2360      F2378   1.383       .  S
C2362      F2373   1.381       .  S
C2362      F2374   1.384       .  S
C2362      F2375   1.382       .  S
C2364      C2365   1.403       .  A
C2364      C2369   1.521       .  S
C2365      C2366   1.401       .  A
C2365      H2370   1.083       .  S
C2366      C2367   1.420       .  A
C2367      C2368   1.408       .  A
C2367      C2371   1.519       .  S
C2368      H2372   1.083       .  S
C2369      F2382   1.384       .  S
C2369      F2383   1.382       .  S
C2369      F2384   1.382       .  S
C2371      F2379   1.382       .  S
C2371      F2380   1.384       .  S
C2371      F2381   1.385       .  S
C2385      C2386   1.401       .  A
C2385      C2390   1.411       .  A
C2385      H2395   1.083       .  S
C2386      C2391   1.486       .  S
C2386      C2387   1.413       .  A
C2387      C2388   1.405       .  A
C2387      C2392   1.521       .  S
C2388      C2389   1.411       .  A
C2388      H2393   1.082       .  S
C2389      C2390   1.426       .  A
C2390      C2394   1.519       .  S
C2391      C2396   1.416       .  A
C2391      C2400   1.401       .  A
C2392      F2408   1.382       .  S
C2392      F2409   1.382       .  S
C2392      F2410   1.385       .  S
C2394      F2405   1.385       .  S
C2394      F2406   1.383       .  S
C2394      F2407   1.384       .  S
C2396      C2397   1.410       .  A
C2396      C2401   1.518       .  S
C2397      C2398   1.404       .  A
C2397      H2402   1.083   1_565  S
C2398      C2399   1.419       .  A
C2399      C2400   1.405       .  A
C2399      C2403   1.520       .  S
C2400      H2404   1.083       .  S
C2401      F2414   1.385       .  S
C2401      F2415   1.382       .  S
C2401      F2416   1.382       .  S
C2403      F2411   1.382       .  S
C2403      F2412   1.383       .  S
C2403      F2413   1.385       .  S
C2417      C2418   1.400       .  A
C2417      C2422   1.408   1_655  A
C2417      H2427   1.083       .  S
C2418      C2423   1.488       .  S
C2418      C2419   1.415       .  A
C2419      C2420   1.409       .  A
C2419      C2424   1.519       .  S
C2420      C2421   1.407       .  A
C2420      H2425   1.083       .  S
C2421      C2422   1.423   1_655  A
C2422      C2426   1.517       .  S
C2423      C2428   1.415       .  A
C2423      C2432   1.404       .  A
C2424      F2440   1.383       .  S
C2424      F2441   1.382       .  S
C2424      F2442   1.384       .  S
C2426      F2437   1.385       .  S
C2426      F2438   1.382       .  S
C2426      F2439   1.382       .  S
C2428      C2429   1.403       .  A
C2428      C2433   1.522       .  S
C2429      C2430   1.406       .  A
C2429      H2434   1.083       .  S
C2430      C2431   1.421       .  A
C2431      C2432   1.413       .  A
C2431      C2435   1.518       .  S
C2432      H2436   1.083       .  S
C2433      F2446   1.385       .  S
C2433      F2447   1.382       .  S
C2433      F2448   1.382       .  S
C2435      F2443   1.384       .  S
C2435      F2444   1.382       .  S
C2435      F2445   1.385       .  S
C2449      C2450   1.402       .  A
C2449      C2454   1.407       .  A
C2449      H2459   1.083       .  S
C2450      C2455   1.479       .  S
C2450      C2451   1.415       .  A
C2451      C2452   1.402       .  A
C2451      C2456   1.521       .  S
C2452      C2453   1.403       .  A
C2452      H2457   1.084       .  S
C2453      C2454   1.416       .  A
C2454      C2458   1.518       .  S
C2455      C2460   1.417       .  A
C2455      C2464   1.403       .  A
C2456      F2472   1.382       .  S
C2456      F2473   1.383       .  S
C2456      F2474   1.385       .  S
C2458      F2469   1.385       .  S
C2458      F2470   1.382       .  S
C2458      F2471   1.384       .  S
C2460      C2461   1.401       .  A
C2460      C2465   1.521       .  S
C2461      C2462   1.399       .  A
C2461      H2466   1.084       .  S
C2462      C2463   1.412       .  A
C2463      C2464   1.407       .  A
C2463      C2467   1.514       .  S
C2464      H2468   1.083       .  S
C2465      F2478   1.385       .  S
C2465      F2479   1.382       .  S
C2465      F2480   1.382       .  S
C2467      F2475   1.381       .  S
C2467      F2476   1.383       .  S
C2467      F2477   1.385       .  S
C2481      C2482   1.398       .  A
C2481      C2486   1.408       .  A
C2481      H2491   1.083       .  S
C2482      C2487   1.483       .  S
C2482      C2483   1.411       .  A
C2483      C2484   1.406       .  A
C2483      C2488   1.519       .  S
C2484      C2485   1.411       .  A
C2484      H2489   1.082       .  S
C2485      C2486   1.428       .  A
C2486      C2490   1.521       .  S
C2487      C2492   1.416       .  A
C2487      C2496   1.405       .  A
C2488      F2504   1.383       .  S
C2488      F2505   1.383       .  S
C2488      F2506   1.384       .  S
C2490      F2501   1.383       .  S
C2490      F2502   1.385       .  S
C2490      F2503   1.384   1_545  S
C2492      C2493   1.401       .  A
C2492      C2497   1.522       .  S
C2493      C2494   1.402       .  A
C2493      H2498   1.084       .  S
C2494      C2495   1.415       .  A
C2495      C2496   1.411       .  A
C2495      C2499   1.517       .  S
C2496      H2500   1.083       .  S
C2497      F2510   1.385       .  S
C2497      F2511   1.382       .  S
C2497      F2512   1.382       .  S
C2499      F2507   1.385       .  S
C2499      F2508   1.383       .  S
C2499      F2509   1.382       .  S
C2513      C2514   1.402       .  A
C2513      C2518   1.410       .  A
C2513      H2523   1.083       .  S
C2514      C2519   1.481       .  S
C2514      C2515   1.415       .  A
C2515      C2516   1.401       .  A
C2515      C2520   1.522       .  S
C2516      C2517   1.405       .  A
C2516      H2521   1.084       .  S
C2517      C2518   1.419       .  A
C2518      C2522   1.518       .  S
C2519      C2524   1.414       .  A
C2519      C2528   1.398       .  A
C2520      F2536   1.382       .  S
C2520      F2537   1.382       .  S
C2520      F2538   1.385       .  S
C2522      F2533   1.385       .  S
C2522      F2534   1.383       .  S
C2522      F2535   1.382       .  S
C2524      C2525   1.406       .  A
C2524      C2529   1.519       .  S
C2525      C2526   1.407       .  A
C2525      H2530   1.083       .  S
C2526      C2527   1.423       .  A
C2527      C2528   1.406       .  A
C2527      C2531   1.515       .  S
C2528      H2532   1.083       .  S
C2529      F2542   1.385       .  S
C2529      F2543   1.382       .  S
C2529      F2544   1.382       .  S
C2531      F2539   1.383       .  S
C2531      F2540   1.382       .  S
C2531      F2541   1.385       .  S
C2545      C2546   1.404       .  A
C2545      C2550   1.408       .  A
C2545      H2555   1.083       .  S
C2546      C2551   1.483       .  S
C2546      C2547   1.416       .  A
C2547      C2548   1.402       .  A
C2547      C2552   1.521       .  S
C2548      C2549   1.404       .  A
C2548      H2553   1.083       .  S
C2549      C2550   1.417       .  A
C2550      C2554   1.517       .  S
C2551      C2556   1.415       .  A
C2551      C2560   1.403       .  A
C2552      F2568   1.382       .  S
C2552      F2569   1.383       .  S
C2552      F2570   1.385       .  S
C2554      F2565   1.383       .  S
C2554      F2566   1.384       .  S
C2554      F2567   1.383       .  S
C2556      C2557   1.400       .  A
C2556      C2561   1.522       .  S
C2557      C2558   1.405       .  A
C2557      H2562   1.082       .  S
C2558      C2559   1.419       .  A
C2559      C2560   1.411       .  A
C2559      C2563   1.518   1_655  S
C2560      H2564   1.083       .  S
C2561      F2574   1.385       .  S
C2561      F2575   1.382       .  S
C2561      F2576   1.383       .  S
C2563      F2571   1.384       .  S
C2563      F2572   1.382   1_455  S
C2563      F2573   1.385   1_455  S
C2577      C2578   1.399       .  A
C2577      C2582   1.402       .  A
C2577      H2587   1.084       .  S
C2578      C2583   1.480       .  S
C2578      C2579   1.413       .  A
C2579      C2580   1.409       .  A
C2579      C2584   1.518       .  S
C2580      C2581   1.407       .  A
C2580      H2585   1.083   1_545  S
C2581      C2582   1.421       .  A
C2582      C2586   1.522       .  S
C2583      C2588   1.416       .  A
C2583      C2592   1.402       .  A
C2584      F2600   1.383       .  S
C2584      F2601   1.381       .  S
C2584      F2602   1.385   1_545  S
C2586      F2597   1.385       .  S
C2586      F2598   1.383       .  S
C2586      F2599   1.383       .  S
C2588      C2589   1.403       .  A
C2588      C2593   1.522       .  S
C2589      C2590   1.404       .  A
C2589      H2594   1.083       .  S
C2590      C2591   1.418       .  A
C2591      C2592   1.408       .  A
C2591      C2595   1.515       .  S
C2592      H2596   1.083       .  S
C2593      F2606   1.385       .  S
C2593      F2607   1.382       .  S
C2593      F2608   1.381       .  S
C2595      F2603   1.382       .  S
C2595      F2604   1.384       .  S
C2595      F2605   1.385       .  S
C2609      C2610   1.404       .  A
C2609      C2614   1.402       .  A
C2609      H2619   1.084       .  S
C2610      C2615   1.480       .  S
C2610      C2611   1.417       .  A
C2611      C2612   1.408       .  A
C2611      C2616   1.519       .  S
C2612      C2613   1.402       .  A
C2612      H2617   1.083       .  S
C2613      C2614   1.412       .  A
C2614      C2618   1.519       .  S
C2615      C2620   1.416       .  A
C2615      C2624   1.399       .  A
C2616      F2632   1.382       .  S
C2616      F2633   1.381       .  S
C2616      F2634   1.384       .  S
C2618      F2629   1.385       .  S
C2618      F2630   1.382       .  S
C2618      F2631   1.383       .  S
C2620      C2621   1.408       .  A
C2620      C2625   1.519       .  S
C2621      C2622   1.406       .  A
C2621      H2626   1.083       .  S
C2622      C2623   1.421       .  A
C2623      C2624   1.399       .  A
C2623      C2627   1.520       .  S
C2624      H2628   1.084       .  S
C2625      F2638   1.385       .  S
C2625      F2639   1.381       .  S
C2625      F2640   1.381       .  S
C2627      F2635   1.383       .  S
C2627      F2636   1.382       .  S
C2627      F2637   1.385       .  S
C2641      C2642   1.401       .  A
C2641      C2646   1.408       .  A
C2641      H2651   1.083       .  S
C2642      C2647   1.486       .  S
C2642      C2643   1.415       .  A
C2643      C2644   1.407       .  A
C2643      C2648   1.519       .  S
C2644      C2645   1.406       .  A
C2644      H2649   1.083       .  S
C2645      C2646   1.420       .  A
C2646      C2650   1.518       .  S
C2647      C2652   1.418       .  A
C2647      C2656   1.405       .  A
C2648      F2664   1.382       .  S
C2648      F2665   1.382       .  S
C2648      F2666   1.385       .  S
C2650      F2661   1.381       .  S
C2650      F2662   1.385       .  S
C2650      F2663   1.382       .  S
C2652      C2653   1.404       .  A
C2652      C2657   1.521       .  S
C2653      C2654   1.400       .  A
C2653      H2658   1.084       .  S
C2654      C2655   1.413       .  A
C2655      C2656   1.410       .  A
C2655      C2659   1.515   1_655  S
C2656      H2660   1.083       .  S
C2657      F2670   1.385       .  S
C2657      F2671   1.382       .  S
C2657      F2672   1.382       .  S
C2659      F2667   1.383       .  S
C2659      F2668   1.383       .  S
C2659      F2669   1.385   1_455  S
C2673      C2674   1.403       .  A
C2673      C2678   1.410       .  A
C2673      H2683   1.083       .  S
C2674      C2679   1.484       .  S
C2674      C2675   1.417       .  A
C2675      C2676   1.404       .  A
C2675      C2680   1.522       .  S
C2676      C2677   1.404       .  A
C2676      H2681   1.084       .  S
C2677      C2678   1.418       .  A
C2678      C2682   1.518       .  S
C2679      C2684   1.416       .  A
C2679      C2688   1.401       .  A
C2680      F2696   1.382       .  S
C2680      F2697   1.382       .  S
C2680      F2698   1.385       .  S
C2682      F2693   1.383       .  S
C2682      F2694   1.384       .  S
C2682      F2695   1.383       .  S
C2684      C2685   1.409       .  A
C2684      C2689   1.519       .  S
C2685      C2686   1.405       .  A
C2685      H2690   1.083       .  S
C2686      C2687   1.418       .  A
C2687      C2688   1.404       .  A
C2687      C2691   1.518       .  S
C2688      H2692   1.084       .  S
C2689      F2702   1.384       .  S
C2689      F2703   1.382       .  S
C2689      F2704   1.382       .  S
C2691      F2699   1.385       .  S
C2691      F2700   1.384       .  S
C2691      F2701   1.382       .  S
C2705      C2706   1.400       .  A
C2705      C2710   1.401       .  A
C2705      H2715   1.084       .  S
C2706      C2711   1.482       .  S
C2706      C2707   1.414       .  A
C2707      C2708   1.411       .  A
C2707      C2712   1.517       .  S
C2708      C2709   1.408       .  A
C2708      H2713   1.083       .  S
C2709      C2710   1.421       .  A
C2710      C2714   1.522       .  S
C2711      C2716   1.416       .  A
C2711      C2720   1.401       .  A
C2712      F2728   1.382       .  S
C2712      F2729   1.381       .  S
C2712      F2730   1.385       .  S
C2714      F2725   1.383       .  S
C2714      F2726   1.385       .  S
C2714      F2727   1.384       .  S
C2716      C2717   1.406       .  A
C2716      C2721   1.522       .  S
C2717      C2718   1.405       .  A
C2717      H2722   1.083       .  S
C2718      C2719   1.420       .  A
C2719      C2720   1.408       .  A
C2719      C2723   1.518       .  S
C2720      H2724   1.083       .  S
C2721      F2734   1.385       .  S
C2721      F2735   1.382       .  S
C2721      F2736   1.381       .  S
C2723      F2731   1.385       .  S
C2723      F2732   1.382       .  S
C2723      F2733   1.383       .  S
C2737      C2738   1.403       .  A
C2737      C2742   1.412       .  A
C2737      H2747   1.083       .  S
C2738      C2743   1.485       .  S
C2738      C2739   1.416       .  A
C2739      C2740   1.399       .  A
C2739      C2744   1.523       .  S
C2740      C2741   1.405       .  A
C2740      H2745   1.082       .  S
C2741      C2742   1.423       .  A
C2742      C2746   1.519       .  S
C2743      C2748   1.416       .  A
C2743      C2752   1.399       .  A
C2744      F2760   1.382       .  S
C2744      F2761   1.383       .  S
C2744      F2762   1.385       .  S
C2746      F2757   1.383       .  S
C2746      F2758   1.385       .  S
C2746      F2759   1.384       .  S
C2748      C2749   1.407       .  A
C2748      C2753   1.520       .  S
C2749      C2750   1.405   1_565  A
C2749      H2754   1.082       .  S
C2750      C2751   1.421       .  A
C2751      C2752   1.407   1_545  A
C2751      C2755   1.517       .  S
C2752      H2756   1.083   1_565  S
C2753      F2766   1.385       .  S
C2753      F2767   1.382       .  S
C2753      F2768   1.383       .  S
C2755      F2763   1.381       .  S
C2755      F2764   1.382       .  S
C2755      F2765   1.385       .  S
C2769      C2770   1.400       .  A
C2769      C2774   1.400       .  A
C2769      H2779   1.085       .  S
C2770      C2775   1.475       .  S
C2770      C2771   1.413       .  A
C2771      C2772   1.405       .  A
C2771      C2776   1.518       .  S
C2772      C2773   1.404       .  A
C2772      H2777   1.082       .  S
C2773      C2774   1.418       .  A
C2774      C2778   1.519       .  S
C2775      C2780   1.414       .  A
C2775      C2784   1.400       .  A
C2776      F2792   1.382       .  S
C2776      F2793   1.382       .  S
C2776      F2794   1.384       .  S
C2778      F2789   1.383       .  S
C2778      F2790   1.384       .  S
C2778      F2791   1.384       .  S
C2780      C2781   1.400       .  A
C2780      C2785   1.523       .  S
C2781      C2782   1.405       .  A
C2781      H2786   1.084       .  S
C2782      C2783   1.418       .  A
C2783      C2784   1.408       .  A
C2783      C2787   1.516       .  S
C2784      H2788   1.083       .  S
C2785      F2798   1.385       .  S
C2785      F2799   1.382       .  S
C2785      F2800   1.382       .  S
C2787      F2795   1.384       .  S
C2787      F2796   1.383       .  S
C2787      F2797   1.383       .  S
C2801      C2802   1.402       .  A
C2801      C2806   1.408       .  A
C2801      H2811   1.083       .  S
C2802      C2807   1.479       .  S
C2802      C2803   1.414       .  A
C2803      C2804   1.401       .  A
C2803      C2808   1.521       .  S
C2804      C2805   1.405       .  A
C2804      H2809   1.083       .  S
C2805      C2806   1.419       .  A
C2806      C2810   1.518       .  S
C2807      C2812   1.413       .  A
C2807      C2816   1.400       .  A
C2808      F2824   1.382       .  S
C2808      F2825   1.382       .  S
C2808      F2826   1.385       .  S
C2810      F2821   1.382       .  S
C2810      F2822   1.385       .  S
C2810      F2823   1.384       .  S
C2812      C2813   1.404       .  A
C2812      C2817   1.522       .  S
C2813      C2814   1.407       .  A
C2813      H2818   1.083       .  S
C2814      C2815   1.420       .  A
C2815      C2816   1.407       .  A
C2815      C2819   1.518       .  S
C2816      H2820   1.083       .  S
C2817      F2830   1.384       .  S
C2817      F2831   1.382       .  S
C2817      F2832   1.383       .  S
C2819      F2827   1.385       .  S
C2819      F2828   1.384       .  S
C2819      F2829   1.382       .  S
