geometry optimzed in LAMMPS
_audit_creation_date              2020-11-30 
_audit_creation_method            'lammps2cif' 
_symmetry_space_group_name_H-M    'P1' 
_symmetry_Int_Tables_number       1 
_symmetry_cell_setting            triclinic 
loop_ 
_symmetry_equiv_pos_as_xyz 
  x,y,z 
_cell_length_a                    51.80175963 
_cell_length_b                    51.9230699368654 
_cell_length_c                    30.823210664010823 
_cell_angle_alpha                 89.81680402590315 
_cell_angle_beta                  89.72000484020084 
_cell_angle_gamma                 89.91299368994129 
loop_ 
_atom_site_label 
_atom_site_type_symbol 
_atom_site_fract_x 
_atom_site_fract_y 
_atom_site_fract_z 
_atom_site_charge 
C1          C  0.87224492  0.73721519  0.45836021     0.86400
C2          C  0.84755782  0.75370957  0.45736098    -0.53800
C3          C  0.84444661  0.77049067  0.99682429     0.09400
C4          C  0.86783572  0.76814056  0.02752877     0.20300
C5          C  0.89394570  0.75709930  0.46399019    -0.54500
C6          C  0.89107452  0.77420611  0.99776448     0.09500
C7          C  0.87139382  0.72282341  0.50161173    -0.54100
C8          C  0.87026672  0.73901280  0.03784976     0.10000
H9          H  0.83449166  0.75414943  0.42989526     0.14600
H10         H  0.86630436  0.78064347  0.05654733     0.00300
H11         H  0.90970132  0.75994080  0.44147250     0.14900
H12         H  0.87384938  0.70302018  0.00383007     0.14600
O13         O  0.89821512  0.66592120  0.20251305    -0.74500
O14         O  0.90257598  0.61187834  0.28777531    -0.74500
O15         O  0.90137150  0.61387497  0.19969061    -0.74600
O16         O  0.89928274  0.66361330  0.29056981    -0.74600
O17         O  0.85639687  0.66073737  0.29267784    -0.74500
O18         O  0.85848843  0.61153002  0.20119679    -0.74500
O19         O  0.85973540  0.60902933  0.28920377    -0.74500
O20         O  0.85534847  0.66359626  0.20460854    -0.74600
Ni21       Ni  0.90188083  0.63893538  0.24499676     1.25400
Ni22       Ni  0.85597423  0.63615344  0.24689552     1.25400
C23         C  0.87608065  0.67369257  0.18924695     0.87700
C24         C  0.88189538  0.60175619  0.30318854     0.87600
C25         C  0.88023408  0.60442582  0.18538634     0.87700
C26         C  0.87752544  0.66989973  0.30735501     0.87800
C27         C  0.90376587  0.24195143  0.04135273     0.86400
C28         C  0.87839853  0.22677900  0.03992875    -0.53800
C29         C  0.87598120  0.21130787  0.00472727     0.09400
C30         C  0.89884255  0.21089903  0.47254845     0.20300
C31         C  0.92445405  0.22068079  0.03848739    -0.54500
C32         C  0.92230129  0.20497686  0.00301489     0.09500
C33         C  0.90548789  0.25623847  0.99800314    -0.54100
C34         C  0.90397493  0.23935704  0.46076850     0.10000
H35         H  0.86412814  0.22709879  0.06587517     0.14600
H36         H  0.89656664  0.19844957  0.44367466     0.00300
H37         H  0.93767270  0.21625121  0.06447451     0.14900
H38         H  0.90797720  0.27697279  0.99555939     0.14600
O39         O  0.91958228  0.37040009  0.21366045    -0.74500
O40         O  0.92226151  0.31448497  0.29587788    -0.74500
O41         O  0.92352505  0.31860219  0.20799708    -0.74600
O42         O  0.91852767  0.36633410  0.30146315    -0.74600
O43         O  0.87567654  0.36324484  0.30063998    -0.74500
O44         O  0.88058113  0.31611230  0.20625233    -0.74500
O45         O  0.87945258  0.31143413  0.29405377    -0.74500
O46         O  0.87673418  0.36762808  0.21302945    -0.74600
Ni47       Ni  0.92250848  0.34253506  0.25486153     1.25400
Ni48       Ni  0.87660599  0.33945326  0.25348676     1.25400
C49         C  0.89765588  0.37812316  0.19935814     0.87700
C50         C  0.90124655  0.30385489  0.30896181     0.87600
C51         C  0.90279273  0.30991972  0.19111292     0.87700
C52         C  0.89634793  0.37278194  0.31645274     0.87800
O53         O  0.86779733  0.46209326  0.04709803    -0.74500
O54         O  0.86579475  0.51346629  0.45486308    -0.74500
O55         O  0.86927853  0.46128989  0.45831115    -0.74600
O56         O  0.86413356  0.51411563  0.04222174    -0.74600
O57         O  0.90698689  0.51688416  0.04043689    -0.74500
O58         O  0.91212327  0.46436188  0.45783312    -0.74500
O59         O  0.90861362  0.51656856  0.45465409    -0.74500
O60         O  0.91062087  0.46496400  0.04550052    -0.74600
Ni61       Ni  0.86398450  0.48672437  0.00080493     1.25400
Ni62       Ni  0.90985017  0.48984339  0.99905986     1.25400
C63         C  0.88992337  0.45537219  0.06186586     0.87700
C64         C  0.88656282  0.52353738  0.43974752     0.87600
C65         C  0.89137534  0.45370668  0.44453493     0.87700
C66         C  0.88515003  0.52460545  0.05494110     0.87800
C67         C  0.74214957  0.88371769  0.03179733     0.86400
C68         C  0.75384915  0.85656034  0.02823535    -0.53800
C69         C  0.76967539  0.85310839  0.99329900     0.09400
C70         C  0.77070109  0.87578689  0.45927756     0.20300
C71         C  0.76595698  0.90144149  0.03117837    -0.54500
C72         C  0.78189628  0.89796388  0.99626987     0.09500
C73         C  0.72891060  0.88867593  0.98844531    -0.54100
C74         C  0.74255795  0.88402355  0.44979251     0.10000
H75         H  0.75171699  0.84209171  0.05354494     0.14600
H76         H  0.78281094  0.87323305  0.42977402     0.00300
H77         H  0.77121710  0.91448052  0.05694128     0.14900
H78         H  0.70865386  0.89391330  0.98588242     0.14600
O79         O  0.66771393  0.90946243  0.28480815    -0.74500
O80         O  0.61301941  0.90716287  0.20155243    -0.74500
O81         O  0.61558399  0.90715034  0.28971675    -0.74600
O82         O  0.66497377  0.90918302  0.19685347    -0.74600
O83         O  0.66599193  0.86622744  0.19646595    -0.74500
O84         O  0.61808271  0.86436653  0.29032744    -0.74500
O85         O  0.61428115  0.86430349  0.20261467    -0.74500
O86         O  0.67018387  0.86665171  0.28423153    -0.74600
Ni87       Ni  0.64026850  0.90977809  0.24326666     1.25400
Ni88       Ni  0.64222576  0.86387870  0.24349439     1.25400
C89         C  0.67789029  0.88849039  0.29861119     0.87700
C90         C  0.60476959  0.88539914  0.18788298     0.87600
C91         C  0.60874250  0.88530951  0.30552972     0.87700
C92         C  0.67307885  0.88792227  0.18077077     0.87800
C93         C  0.24680053  0.84347279  0.45478923     0.86400
C94         C  0.22943028  0.81943433  0.45867231    -0.53800
C95         C  0.21373380  0.82078664  0.99973291     0.09400
C96         C  0.21727376  0.84434208  0.02971063     0.20300
C97         C  0.22742694  0.86583174  0.45704490    -0.54500
C98         C  0.21074094  0.86720599  0.99974505     0.09500
C99         C  0.26167586  0.84437455  0.49743634    -0.54100
C100        C  0.24656584  0.84616573  0.03799041     0.10000
H101        H  0.22699117  0.80565061  0.43291304     0.14600
H102        H  0.20561871  0.84372465  0.06000692     0.00300
H103        H  0.22551307  0.88007264  0.43137367     0.14900
H104        H  0.28201674  0.84894874  0.00166353     0.14600
O105        O  0.31737741  0.87698033  0.20308887    -0.74500
O106        O  0.37189612  0.88555730  0.28591985    -0.74500
O107        O  0.36893832  0.88557566  0.19796750    -0.74600
O108        O  0.32061032  0.87683808  0.29118956    -0.74600
O109        O  0.32745995  0.83445670  0.29001224    -0.74500
O110        O  0.37592048  0.84326497  0.19754476    -0.74500
O111        O  0.37887308  0.84327909  0.28547938    -0.74500
O112        O  0.32439476  0.83470447  0.20213405    -0.74600
Ni113      Ni  0.34442199  0.88272977  0.24452312     1.25400
Ni114      Ni  0.35191462  0.83743150  0.24375086     1.25400
C115        C  0.31196092  0.85451410  0.18850186     0.87700
C116        C  0.38425302  0.86582266  0.29988403     0.87600
C117        C  0.38045018  0.86578374  0.18232714     0.87700
C118        C  0.31625166  0.85420836  0.30619768     0.87800
O119        O  0.47174069  0.85484841  0.45239850    -0.74500
O120        O  0.52059833  0.86172216  0.03687841    -0.74500
O121        O  0.46873036  0.85749337  0.03322247    -0.74600
O122        O  0.52369549  0.85950273  0.45546422    -0.74600
O123        O  0.51986439  0.90219618  0.45437212    -0.74500
O124        O  0.46520492  0.90021873  0.03428437    -0.74500
O125        O  0.51747922  0.90449969  0.03665433    -0.74500
O126        O  0.46768751  0.89749103  0.45114845    -0.74600
Ni127      Ni  0.49594488  0.85844617  0.99127726     1.25400
Ni128      Ni  0.49188790  0.90418564  0.99143812     1.25400
C129        C  0.46152452  0.87523036  0.43638794     0.87700
C130        C  0.52742724  0.88366774  0.05172930     0.87600
C131        C  0.45809023  0.87798800  0.04792058     0.87700
C132        C  0.53079057  0.88155542  0.44094984     0.87800
C133        C  0.75573391  0.11697771  0.46641579     0.86400
C134        C  0.77355071  0.14063080  0.47016897    -0.53800
C135        C  0.79165938  0.13850503  0.00394692     0.09400
C136        C  0.78744117  0.11514148  0.03429486     0.20300
C137        C  0.77454651  0.09413129  0.46525701    -0.54500
C138        C  0.79113188  0.09203521  0.00355384     0.09500
C139        C  0.74227216  0.11529401  0.51056556    -0.54100
C140        C  0.75838052  0.11561756  0.04598326     0.10000
H141        H  0.77485206  0.15611647  0.44678425     0.14600
H142        H  0.80001011  0.11470836  0.06328467     0.00300
H143        H  0.77512899  0.08043132  0.43871819     0.14900
H144        H  0.72160651  0.11615148  0.01392786     0.14600
O145        O  0.68824093  0.08617541  0.21318284    -0.74500
O146        O  0.63263174  0.07843289  0.29516974    -0.74500
O147        O  0.63651226  0.07852132  0.20726614    -0.74600
O148        O  0.68389032  0.08611469  0.30134571    -0.74600
O149        O  0.67805314  0.12865253  0.29956170    -0.74500
O150        O  0.63017233  0.12094865  0.20715225    -0.74500
O151        O  0.62673422  0.12088350  0.29476016    -0.74500
O152        O  0.68186244  0.12854944  0.21174029    -0.74600
Ni153      Ni  0.66060569  0.08080078  0.25418211     1.25400
Ni154      Ni  0.65401608  0.12625197  0.25319109     1.25400
C155        C  0.69412791  0.10857034  0.19844512     0.87700
C156        C  0.62070696  0.09843412  0.30910182     0.87600
C157        C  0.62516961  0.09854670  0.19214280     0.87700
C158        C  0.68837930  0.10862767  0.31641081     0.87800
C159        C  0.26114361  0.08655818  0.04919231     0.86400
C160        C  0.24594886  0.11193649  0.04788394    -0.53800
C161        C  0.23049524  0.11484222  0.01254217     0.09400
C162        C  0.23127300  0.09046733  0.47738426     0.20300
C163        C  0.24006107  0.06582455  0.04552223    -0.54500
C164        C  0.22420492  0.06876685  0.01055675     0.09500
C165        C  0.27566625  0.08531648  0.00599459    -0.54100
C166        C  0.26051948  0.08744168  0.46796977     0.10000
H167        H  0.24645348  0.12591859  0.07402402     0.14600
H168        H  0.21921488  0.09241373  0.44789546     0.00300
H169        H  0.23613752  0.05116345  0.06961942     0.14900
H170        H  0.29644546  0.08273666  0.00360705     0.14600
O171        O  0.38977005  0.06557089  0.21590284    -0.74500
O172        O  0.33598659  0.06462497  0.30237675    -0.74500
O173        O  0.33761568  0.06446313  0.21430092    -0.74600
O174        O  0.38819989  0.06560267  0.30369717    -0.74600
O175        O  0.38710699  0.10846716  0.30352490    -0.74500
O176        O  0.33701841  0.10739996  0.21346797    -0.74500
O177        O  0.33494410  0.10745535  0.30160164    -0.74500
O178        O  0.38896024  0.10841124  0.21595755    -0.74600
Ni179      Ni  0.36288170  0.06352973  0.25910164     1.25400
Ni180      Ni  0.36191836  0.10944426  0.25866321     1.25400
C181        C  0.39831018  0.08720020  0.20161179     0.87700
C182        C  0.32672804  0.08590874  0.31672302     0.87600
C183        C  0.32939645  0.08575353  0.19853469     0.87700
C184        C  0.39611916  0.08724083  0.31827653     0.87800
O185        O  0.53372369  0.11180588  0.46248069    -0.74500
O186        O  0.48447621  0.11004936  0.05088689    -0.74500
O187        O  0.53641731  0.11258615  0.04552618    -0.74600
O188        O  0.48188283  0.10908646  0.46598356    -0.74600
O189        O  0.48415958  0.06626703  0.46491300    -0.80100
O190        O  0.53896806  0.06977559  0.04586731    -0.74500
O191        O  0.48668449  0.06725439  0.05105323    -0.74500
O192        O  0.53633478  0.06904900  0.46145721    -0.74600
Ni193      Ni  0.50906644  0.11282452  0.00440358     1.25400
Ni194      Ni  0.51147052  0.06698730  0.00446776     1.25400
C195        C  0.54322748  0.09112245  0.44647122     0.87700
C196        C  0.47727746  0.08822990  0.06629782     0.87600
C197        C  0.54649959  0.09173927  0.05984236     0.87700
C198        C  0.47424934  0.08737857  0.45130037     0.87800
C199        C  0.09911260  0.72264374  0.05635601     0.86400
C200        C  0.12464129  0.73738897  0.05189004    -0.53800
C201        C  0.12704314  0.75105049  0.01440409     0.09400
C202        C  0.10274205  0.74809254  0.48339632     0.20300
C203        C  0.07861709  0.74389362  0.05095084    -0.54500
C204        C  0.08071281  0.75776097  0.01312023     0.09500
C205        C  0.09690518  0.70636451  0.01524120    -0.54100
C206        C  0.09689180  0.71915051  0.47733039     0.10000
H207        H  0.13910188  0.73804205  0.07727233     0.14600
H208        H  0.10443554  0.75888965  0.45238550     0.00300
H209        H  0.06559918  0.74965066  0.07658209     0.14900
H210        H  0.09398485  0.68564411  0.01593749     0.14600
O211        O  0.07529226  0.64479160  0.31048130    -0.74500
O212        O  0.07808699  0.59344314  0.22080428    -0.74500
O213        O  0.07775538  0.59266643  0.30884358    -0.74600
O214        O  0.07569864  0.64571570  0.22206171    -0.74600
O215        O  0.11872061  0.64703764  0.22195382    -0.74500
O216        O  0.12062802  0.59517654  0.30913664    -0.74500
O217        O  0.12099847  0.59525994  0.22156509    -0.74500
O218        O  0.11821589  0.64715157  0.30979609    -0.74600
Ni219      Ni  0.07513392  0.61913726  0.26553407     1.25400
Ni220      Ni  0.12111596  0.62126107  0.26566190     1.25400
C221        C  0.09633538  0.65434654  0.32515634     0.87700
C222        C  0.10007765  0.58576418  0.20643419     0.87600
C223        C  0.09967920  0.58519034  0.32337479     0.87700
C224        C  0.09700945  0.65464505  0.20704757     0.87800
C225        C  0.12929977  0.23065391  0.47937981     0.86400
C226        C  0.15467126  0.21527718  0.48066155    -0.53800
C227        C  0.15794175  0.19883511  0.01723240     0.09400
C228        C  0.13306807  0.19802874  0.04458237     0.20300
C229        C  0.10785476  0.21033507  0.47892306    -0.54500
C230        C  0.11187368  0.19299850  0.01094737     0.09500
C231        C  0.12729007  0.24273099  0.52459852    -0.54100
C232        C  0.12865040  0.22600813  0.05937581     0.10000
H233        H  0.16948288  0.21679604  0.45571729     0.14600
H234        H  0.13369909  0.18373669  0.07144895     0.00300
H235        H  0.09314739  0.20966726  0.45395340     0.14900
H236        H  0.12548457  0.26378886  0.03301201     0.14600
O237        O  0.09894540  0.29568665  0.22441395    -0.74500
O238        O  0.09553614  0.35282873  0.30273229    -0.74500
O239        O  0.09550933  0.34739621  0.21515875    -0.74600
O240        O  0.09901288  0.30144475  0.31182131    -0.74600
O241        O  0.14207391  0.30410136  0.31045122    -0.74500
O242        O  0.13839987  0.35017010  0.21443762    -0.74500
O243        O  0.13841538  0.35558631  0.30194545    -0.74500
O244        O  0.14183721  0.29845797  0.22340266    -0.74600
Ni245      Ni  0.09571031  0.32422606  0.26348199     1.25400
Ni246      Ni  0.14170456  0.32718137  0.26244312     1.25400
C247        C  0.12094985  0.28767005  0.21076802     0.87700
C248        C  0.11641834  0.36331815  0.31611358     0.87600
C249        C  0.11640135  0.35647010  0.19889199     0.87700
C250        C  0.12114881  0.29560663  0.32717831     0.87800
O251        O  0.12728121  0.49932116  0.05935705    -0.74500
O252        O  0.13153629  0.44908334  0.46871898    -0.74500
O253        O  0.12705929  0.50074660  0.47164021    -0.74600
O254        O  0.13236414  0.44737165  0.05501925    -0.74600
O255        O  0.08962823  0.44304585  0.05406212    -0.74500
O256        O  0.08424922  0.49752479  0.47467039    -0.74500
O257        O  0.08872557  0.44578766  0.47089175    -0.74500
O258        O  0.08453792  0.49512259  0.05951813    -0.74600
Ni259      Ni  0.13152730  0.47466716  0.01359096     1.25400
Ni260      Ni  0.08570569  0.47043115  0.01303509     1.25400
C261        C  0.10503913  0.50569504  0.07434207     0.87700
C262        C  0.11053907  0.43925573  0.45442404     0.87600
C263        C  0.10466637  0.50768277  0.45855755     0.87700
C264        C  0.11182561  0.43596517  0.06786992     0.87800
O265        O  0.06848382  0.00236631  0.46807923    -0.74500
O266        O  0.11792559  0.94708071  0.46655729    -0.74500
O267        O  0.06553018  0.95032252  0.46688613    -0.74600
O268        O  0.12101219  0.99895647  0.46672696    -0.74600
O269        O  0.12052668  0.00098060  0.04521305    -0.74500
O270        O  0.06529796  0.95172427  0.04519147    -0.74500
O271        O  0.11778261  0.94902781  0.04670065    -0.74500
O272        O  0.06813572  0.00386151  0.04498037    -0.74600
Ni273      Ni  0.09318646  0.97470373  0.46448813     1.25400
Ni274      Ni  0.09288080  0.97641607  0.04813575     1.25400
C275        C  0.06040188  0.01291045  0.00860407     0.87700
C276        C  0.12638512  0.93995419  0.01085188     0.87600
C277        C  0.05653968  0.94387920  0.00869343     0.87700
C278        C  0.13030197  0.00858251  0.00903840     0.87800
O279        O  0.03231814  0.04267646  0.04393605    -0.74500
O280        O  0.98460281  0.09928032  0.04103613    -0.74500
O281        O  0.98006499  0.04701463  0.04146975    -0.74600
O282        O  0.03591502  0.09478502  0.04460229    -0.74600
O283        O  0.03666198  0.09394380  0.47224368    -0.74500
O284        O  0.98112505  0.04529199  0.46735151    -0.74500
O285        O  0.98495731  0.09717780  0.46879337    -0.74500
O286        O  0.03353644  0.04168406  0.46925172    -0.74600
Ni287      Ni  0.00812668  0.07079755  0.04533219     1.25400
Ni288      Ni  0.00915059  0.06942622  0.46684935     1.25400
C289        C  0.04140049  0.03394341  0.00808942     0.87700
C290        C  0.97804582  0.10875214  0.00424105     0.87600
C291        C  0.97173036  0.03904170  0.00490648     0.87700
C292        C  0.04505953  0.10398633  0.00922697     0.87800
O293        O  0.02570720  0.91637898  0.46594110    -0.74500
O294        O  0.96900083  0.86922930  0.46524077    -0.74500
O295        O  0.97357899  0.92111989  0.46316635    -0.74600
O296        O  0.02070930  0.86440844  0.46675814    -0.74600
O297        O  0.02021828  0.86479819  0.04168081    -0.74500
O298        O  0.97323288  0.92174449  0.03927538    -0.74500
O299        O  0.96894941  0.86965274  0.03939622    -0.74500
O300        O  0.02532488  0.91708975  0.04298440    -0.74600
Ni301      Ni  0.99733316  0.89285291  0.46269556     1.25400
Ni302      Ni  0.99693205  0.89344741  0.04343779     1.25400
C303        C  0.03517632  0.92540618  0.00746277     0.87700
C304        C  0.96126793  0.86100321  0.00284947     0.87600
C305        C  0.96588055  0.93082497  0.00260430     0.87700
C306        C  0.02822703  0.85541580  0.00563695     0.87800
O307        O  0.93830540  0.96067591  0.46144933    -0.74500
O308        O  0.88762516  0.01492644  0.46262774    -0.74500
O309        O  0.94026453  0.01260175  0.46432300    -0.74600
O310        O  0.88588162  0.96305970  0.45809534    -0.74600
O311        O  0.88611871  0.96231829  0.03559639    -0.74500
O312        O  0.94064125  0.01222791  0.03976645    -0.74500
O313        O  0.88816891  0.01403965  0.03925364    -0.74500
O314        O  0.93831228  0.96031082  0.03790704    -0.74600
Ni315      Ni  0.91309996  0.98792385  0.45902087     1.25400
Ni316      Ni  0.91332737  0.98720853  0.04066335     1.25400
C317        C  0.94700924  0.95186999  0.00180228     0.87700
C318        C  0.87952476  0.02329400  0.00369952     0.87600
C319        C  0.95020102  0.02074160  0.00403740     0.87700
C320        C  0.87727770  0.95519691  0.99870205     0.87800
C321        C  0.11495211  0.38390345  0.34962851    -0.05500
C322        C  0.09140155  0.38854750  0.37113508    -0.32900
C323        C  0.08962020  0.40634654  0.40508902     0.36300
C324        C  0.11162592  0.42028114  0.41824143    -0.05900
C325        C  0.13508226  0.41598346  0.39619786    -0.32800
C326        C  0.13685375  0.39816829  0.36221735     0.36200
H327        H  0.07424421  0.37790977  0.36233008     0.16600
O328        O  0.06621507  0.40971449  0.42529017    -0.60300
H329        H  0.15226624  0.42650894  0.40522806     0.16600
O330        O  0.16023642  0.39475559  0.34197209    -0.60400
H331        H  0.16014929  0.40695153  0.31715314     0.43600
H332        H  0.06581597  0.39670272  0.44892271     0.43500
C333        C  0.11364244  0.41437934  0.09911907    -0.05500
C334        C  0.09137575  0.40019152  0.10957980    -0.32900
C335        C  0.09210661  0.38055942  0.14062590     0.36300
C336        C  0.11532086  0.37507718  0.16255306    -0.05900
C337        C  0.13781912  0.38845509  0.15064980    -0.32800
C338        C  0.13720088  0.40777356  0.11912568     0.36200
H339        H  0.07316964  0.40440380  0.09391178     0.16600
O340        O  0.06987141  0.36723514  0.14965709    -0.60300
H341        H  0.15599943  0.38441663  0.16652936     0.16600
O342        O  0.15962501  0.42063759  0.10948278    -0.60400
H343        H  0.16823669  0.41014097  0.08679112     0.43600
H344        H  0.07023973  0.35216482  0.12991869     0.43500
C345        C  0.09568001  0.16957192  0.01070156    -0.05500
C346        C  0.08425342  0.16101394  0.04932126    -0.32900
C347        C  0.06824776  0.13934214  0.04968826     0.36300
C348        C  0.06379164  0.12551267  0.01091718    -0.05900
C349        C  0.07440194  0.13268814  0.47277798    -0.32800
C350        C  0.08968806  0.15477441  0.47249109     0.36200
H351        H  0.08711277  0.17161417  0.07913863     0.16600
O352        O  0.05663854  0.13231538  0.08801427    -0.60300
H353        H  0.07120633  0.12278017  0.44240044     0.16600
O354        O  0.10065416  0.16254354  0.43403272    -0.60400
H355        H  0.11844729  0.15553590  0.43441493     0.43600
H356        H  0.04046482  0.14245970  0.08931988     0.43500
C357        C  0.12267675  0.27945435  0.36556049    -0.05500
C358        C  0.12822650  0.25333539  0.36117590    -0.32900
C359        C  0.13023126  0.23765807  0.39783909     0.36300
C360        C  0.12741648  0.24829527  0.43992947    -0.05900
C361        C  0.12176649  0.27481563  0.44358195    -0.32800
C362        C  0.11943209  0.29027547  0.40674380     0.36200
H363        H  0.13079294  0.24502863  0.32921922     0.16600
O364        O  0.13518320  0.21190063  0.39225348    -0.60300
H365        H  0.11867618  0.28405457  0.47435956     0.16600
O366        O  0.11375576  0.31596455  0.41126587    -0.60400
H367        H  0.13071089  0.32482237  0.41156054     0.43600
H368        H  0.11864762  0.20432643  0.38242141     0.43500
C369        C  0.12514609  0.23460237  0.10456696    -0.05500
C370        C  0.14686172  0.23820060  0.13067850    -0.32900
C371        C  0.14551381  0.25416859  0.16727536     0.36300
C372        C  0.12208116  0.26666289  0.17812860    -0.05900
C373        C  0.09981498  0.26076034  0.15419769    -0.32800
C374        C  0.10127364  0.24497321  0.11760551     0.36200
H375        H  0.16533754  0.23026789  0.12082402     0.16600
O376        O  0.16737623  0.25803899  0.19131532    -0.60300
H377        H  0.08150904  0.26977984  0.16199708     0.16600
O378        O  0.07972516  0.24168152  0.09252952    -0.60400
H379        H  0.07376882  0.22390927  0.09877275     0.43600
H380        H  0.17777873  0.27068945  0.17453387     0.43500
C381        C  0.10329328  0.52593627  0.10853365    -0.05500
C382        C  0.12527051  0.54067108  0.11821183    -0.32900
C383        C  0.12449664  0.56014551  0.14955648     0.36300
C384        C  0.10135641  0.56549271  0.17226197    -0.05900
C385        C  0.07927545  0.55093162  0.16236951    -0.32800
C386        C  0.08010575  0.53130475  0.13112547     0.36200
H387        H  0.14327156  0.53731345  0.10109633     0.16600
O388        O  0.14637686  0.57434789  0.15660507    -0.60300
H389        H  0.06125260  0.55452885  0.17927717     0.16600
O390        O  0.05805614  0.51758520  0.12304527    -0.60400
H391        H  0.05837452  0.50304312  0.14391715     0.43600
H392        H  0.15696949  0.56381089  0.17667735     0.43500
C393        C  0.10273461  0.52738331  0.42388500    -0.05500
C394        C  0.12554834  0.53758502  0.40616141    -0.32900
C395        C  0.12486265  0.55607641  0.37333423     0.36300
C396        C  0.10094665  0.56495567  0.35729800    -0.05900
C397        C  0.07806123  0.55449369  0.37450623    -0.32800
C398        C  0.07878647  0.53577852  0.40726899     0.36200
H399        H  0.14423616  0.53123450  0.41768571     0.16600
O400        O  0.14783950  0.56496661  0.35686022    -0.60300
H401        H  0.05944455  0.56083107  0.36265058     0.16600
O402        O  0.05593575  0.52611996  0.42295056    -0.60400
H403        H  0.05178369  0.51138804  0.40374684     0.43600
H404        H  0.15316812  0.57898926  0.37672692     0.43500
C405        C  0.06571657  0.78191020  0.00585412    -0.05500
C406        C  0.07749666  0.80305042  0.98499090    -0.32900
C407        C  0.06566520  0.82731430  0.98480281     0.36300
C408        C  0.04176991  0.83066774  0.00565484    -0.05900
C409        C  0.02836917  0.80841662  0.52325845    -0.32800
C410        C  0.04064736  0.78442499  0.52417388     0.36200
H411        H  0.09645297  0.80126467  0.97046506     0.16600
O412        O  0.07785264  0.84770358  0.96511714    -0.60300
H413        H  0.00910953  0.81025938  0.53684973     0.16600
O414        O  0.02744561  0.76349614  0.54015876    -0.60400
H415        H  0.02412478  0.76722057  0.57123507     0.43600
H416        H  0.08859338  0.85556469  0.98807388     0.43500
C417        C  0.09814416  0.70594381  0.09717500    -0.05500
C418        C  0.07743917  0.70684564  0.12714499    -0.32900
C419        C  0.07677500  0.69044733  0.16333309     0.36300
C420        C  0.09705802  0.67295860  0.17046970    -0.05900
C421        C  0.11763955  0.67200722  0.14091617    -0.32800
C422        C  0.11820390  0.68797392  0.10452483     0.36200
H423        H  0.06119646  0.71954667  0.12268850     0.16600
O424        O  0.05650724  0.69210930  0.19200645    -0.60300
H425        H  0.13316695  0.65824129  0.14530734     0.16600
O426        O  0.13809548  0.68521086  0.07528372    -0.60400
H427        H  0.15346665  0.69263096  0.08961219     0.43600
H428        H  0.04252835  0.68166949  0.17901489     0.43500
C429        C  0.09537269  0.67328509  0.36129060    -0.05500
C430        C  0.07425430  0.67311299  0.39009833    -0.32900
C431        C  0.07392178  0.68893405  0.42682773     0.36300
C432        C  0.09471940  0.70570459  0.43507086    -0.05900
C433        C  0.11516117  0.70696181  0.40524550    -0.32800
C434        C  0.11581558  0.69067565  0.36895778     0.36200
H435        H  0.05836304  0.65991963  0.38513181     0.16600
O436        O  0.05355564  0.68721140  0.45531077    -0.60300
H437        H  0.13135683  0.71961473  0.41132099     0.16600
O438        O  0.13656945  0.69192067  0.34125120    -0.60400
H439        H  0.15026223  0.68148019  0.35531092     0.43600
H440        H  0.04168123  0.70135280  0.44693936     0.43500
C441        C  0.45765816  0.08748822  0.10183716    -0.05500
C442        C  0.44881319  0.11070700  0.11999299    -0.32900
C443        C  0.42989693  0.11095125  0.15260730     0.36300
C444        C  0.41908315  0.08762644  0.16789475    -0.05900
C445        C  0.42817875  0.06436311  0.15016693    -0.32800
C446        C  0.44712995  0.06412905  0.11750130     0.36200
H447        H  0.45651510  0.12895964  0.10882881     0.16600
O448        O  0.42194669  0.13425698  0.16871472    -0.60300
H449        H  0.42038884  0.04613696  0.16127149     0.16600
O450        O  0.45509934  0.04086902  0.10123045    -0.60400
H451        H  0.44297455  0.03701527  0.07730231     0.43600
H452        H  0.43403831  0.13812973  0.19266257     0.43500
C453        C  0.41593289  0.08757734  0.35255378    -0.05500
C454        C  0.42265047  0.06446179  0.37347379    -0.32900
C455        C  0.44152266  0.06398310  0.40565775     0.36300
C456        C  0.45399296  0.08697068  0.41776253    -0.05900
C457        C  0.44722294  0.11008171  0.39690379    -0.32800
C458        C  0.42843248  0.11055678  0.36466048     0.36200
H459        H  0.41322308  0.04657110  0.36500199     0.16600
O460        O  0.44710330  0.04101953  0.42566418    -0.60300
H461        H  0.45671533  0.12796750  0.40520584     0.16600
O462        O  0.42310527  0.13350353  0.34438952    -0.60400
H463        H  0.41032867  0.14222524  0.36340325     0.43600
H464        H  0.45955312  0.03225644  0.40605910     0.43500
C465        C  0.19923409  0.05487614  0.00838943    -0.05500
C466        C  0.18452046  0.05207363  0.04653811    -0.32900
C467        C  0.16164330  0.03795832  0.04692869     0.36300
C468        C  0.15292477  0.02611569  0.00862829    -0.05900
C469        C  0.16744711  0.02819724  0.46441590    -0.32800
C470        C  0.19043498  0.04253942  0.46477368     0.36200
H471        H  0.19082882  0.06087185  0.07649330     0.16600
O472        O  0.14829729  0.03554496  0.08526118    -0.60300
H473        H  0.16107693  0.01997419  0.43405173     0.16600
O474        O  0.20405388  0.04583916  0.42689954    -0.60400
H475        H  0.21710646  0.03189822  0.42672348     0.43600
H476        H  0.13595446  0.05016874  0.08554158     0.43500
C477        C  0.21220519  0.13669717  0.00944024    -0.05500
C478        C  0.21911435  0.16065215  0.51055427    -0.32900
C479        C  0.20149999  0.18108469  0.51341980     0.36300
C480        C  0.17678356  0.17761832  0.01646466    -0.05900
C481        C  0.16831205  0.15291193  0.00535946    -0.32800
C482        C  0.18581749  0.13258017  0.00114145     0.36200
H483        H  0.23954394  0.16454634  0.51405804     0.16600
O484        O  0.21039521  0.20561691  0.52001642    -0.60300
H485        H  0.14804756  0.14936422  0.99955677     0.16600
O486        O  0.17663732  0.10852693  0.99157671    -0.60400
H487        H  0.17320087  0.10882288  0.95995661     0.43600
H488        H  0.21551978  0.21198936  0.49087699     0.43500
C489        C  0.27914721  0.08536471  0.08811241    -0.05500
C490        C  0.27867025  0.06483571  0.11820281    -0.32900
C491        C  0.29477468  0.06476609  0.15439990     0.36300
C492        C  0.31165461  0.08546988  0.16148755    -0.05900
C493        C  0.31251279  0.10577833  0.13153563    -0.32800
C494        C  0.29689274  0.10563726  0.09484575     0.36200
H495        H  0.26628471  0.04839594  0.11432415     0.16600
O496        O  0.29320343  0.04472771  0.18342277    -0.60300
H497        H  0.32578269  0.12165426  0.13602665     0.16600
O498        O  0.29868817  0.12582085  0.06611877    -0.60400
H499        H  0.31377339  0.12179996  0.04744529     0.43600
H500        H  0.30374548  0.03072148  0.17054539     0.43500
C501        C  0.27288176  0.08708744  0.42458440    -0.05500
C502        C  0.28088640  0.06352990  0.40694889    -0.32900
C503        C  0.29761177  0.06271746  0.37099177     0.36300
C504        C  0.30686380  0.08584526  0.35210258    -0.05900
C505        C  0.29801232  0.10942407  0.36923920    -0.32800
C506        C  0.28145262  0.11011746  0.40537234     0.36200
H507        H  0.27504030  0.04566291  0.42236198     0.16600
O508        O  0.30578326  0.03917907  0.35621577    -0.60300
H509        H  0.30474070  0.12750780  0.35575316     0.16600
O510        O  0.27472509  0.13342712  0.42298427    -0.60400
H511        H  0.28802098  0.13694993  0.44521061     0.43600
H512        H  0.29251689  0.03372822  0.33513893     0.43500
C513        C  0.60007328  0.09587132  0.34283837    -0.05500
C514        C  0.58734160  0.11807758  0.35777493    -0.32900
C515        C  0.56870073  0.11679017  0.39074136     0.36300
C516        C  0.56238096  0.09290480  0.41023753    -0.05900
C517        C  0.57466913  0.07057223  0.39468882    -0.32800
C518        C  0.59333964  0.07187524  0.36155118     0.36200
H519        H  0.59192187  0.13676600  0.34406996     0.16600
O520        O  0.55707152  0.13922026  0.40385683    -0.60300
H521        H  0.57006289  0.05194028  0.40858667     0.16600
O522        O  0.60478386  0.04948406  0.34783043    -0.60400
H523        H  0.61929091  0.04651015  0.36815114     0.43600
H524        H  0.54205603  0.14144148  0.38433137     0.43500
C525        C  0.56679532  0.09329523  0.09342006    -0.05500
C526        C  0.58381632  0.07256629  0.10016288    -0.32900
C527        C  0.60301843  0.07382874  0.13204293     0.36300
C528        C  0.60548779  0.09614997  0.15770269    -0.05900
C529        C  0.58834205  0.11671385  0.15099766    -0.32800
C530        C  0.56921690  0.11546674  0.11941632     0.36200
H531        H  0.58238710  0.05538496  0.08047380     0.16600
O532        O  0.61965071  0.05345895  0.13689758    -0.60300
H533        H  0.58943533  0.13388016  0.17079789     0.16600
O534        O  0.55227789  0.13568207  0.11564917    -0.60400
H535        H  0.56151568  0.14881183  0.09800698     0.43600
H536        H  0.61051073  0.04115926  0.15631888     0.43500
C537        C  0.81427099  0.07511587  0.00418205    -0.05500
C538        C  0.82164835  0.06276396  0.04257868    -0.32900
C539        C  0.84308432  0.04623392  0.04323608     0.36300
C540        C  0.85787086  0.04213607  0.00503272    -0.05900
C541        C  0.84972262  0.05434088  0.46189900    -0.32800
C542        C  0.82881006  0.07137756  0.46128257     0.36200
H543        H  0.81043099  0.06548061  0.07195684     0.16600
O544        O  0.84904841  0.03390497  0.08131523    -0.60300
H545        H  0.86058627  0.05135926  0.43221270     0.16600
O546        O  0.82349775  0.08439453  0.42356164    -0.60400
H547        H  0.83215573  0.10132849  0.42657169     0.43600
H548        H  0.83879026  0.01778937  0.08107315     0.43500
C549        C  0.73696302  0.11614115  0.42840858    -0.05500
C550        C  0.73512934  0.13628662  0.39774341    -0.32900
C551        C  0.71941347  0.13408560  0.36129613     0.36300
C552        C  0.70511204  0.11148826  0.35453193    -0.05900
C553        C  0.70601116  0.09175593  0.38556149    -0.32800
C554        C  0.72151067  0.09400035  0.42232471     0.36200
H555        H  0.74566865  0.15399900  0.40089323     0.16600
O556        O  0.71906673  0.15378113  0.33150884    -0.60300
H557        H  0.69445196  0.07455433  0.38156645     0.16600
O558        O  0.72134317  0.07445304  0.45244147    -0.60400
H559        H  0.73097129  0.06005546  0.43883578     0.43600
H560        H  0.70687317  0.16670414  0.34353579     0.43500
C561        C  0.74740043  0.11413523  0.09042965    -0.05500
C562        C  0.73872172  0.13660322  0.11101986    -0.32900
C563        C  0.72269787  0.13524366  0.14790188     0.36300
C564        C  0.71456220  0.11103041  0.16420764    -0.05900
C565        C  0.72477123  0.08863319  0.14491743    -0.32800
C566        C  0.74098881  0.09009158  0.10843361     0.36200
H567        H  0.74338114  0.15525773  0.09722496     0.16600
O568        O  0.71413799  0.15773432  0.16624719    -0.60300
H569        H  0.71918132  0.06977237  0.15672969     0.16600
O570        O  0.74879403  0.06782218  0.08846831    -0.60400
H571        H  0.76514175  0.06298579  0.10296340     0.43600
H572        H  0.72709360  0.16196359  0.18868761     0.43500
C573        C  0.40469395  0.86889222  0.33361248    -0.05500
C574        C  0.41885670  0.84725303  0.34729398    -0.32900
C575        C  0.43749029  0.84907671  0.37997393     0.36300
C576        C  0.44236192  0.87291430  0.40045929    -0.05900
C577        C  0.42857277  0.89469563  0.38624615    -0.32800
C578        C  0.40992767  0.89286956  0.35342301     0.36200
H579        H  0.41547118  0.82861483  0.33271281     0.16600
O580        O  0.45063656  0.82721427  0.39171483    -0.60300
H581        H  0.43196927  0.91328765  0.40098696     0.16600
O582        O  0.39697703  0.91474935  0.34116651    -0.60400
H583        H  0.38210768  0.91601740  0.36138310     0.43600
H584        H  0.46603034  0.82675144  0.37247048     0.43500
C585        C  0.39945058  0.86898800  0.14661052    -0.05500
C586        C  0.40915366  0.89359522  0.13673340    -0.32900
C587        C  0.42804464  0.89700179  0.10457584     0.36300
C588        C  0.43746390  0.87558090  0.08121503    -0.05900
C589        C  0.42731754  0.85109250  0.09052823    -0.32800
C590        C  0.40849564  0.84768818  0.12258292     0.36200
H591        H  0.40249473  0.91028642  0.15460091     0.16600
O592        O  0.43727784  0.92132679  0.09674379    -0.60300
H593        H  0.43398006  0.83431511  0.07289354     0.16600
O594        O  0.39924268  0.82333773  0.13014731    -0.60400
H595        H  0.38433759  0.82144905  0.11033850     0.43600
H596        H  0.45164851  0.92362538  0.11753170     0.43500
C597        C  0.18760758  0.88381540  0.00485913    -0.05500
C598        C  0.18296811  0.89696026  0.04377001    -0.32900
C599        C  0.16260599  0.91479509  0.04697242     0.36300
C600        C  0.14643903  0.91947349  0.01087751    -0.05900
C601        C  0.15216946  0.90457864  0.46341605    -0.32800
C602        C  0.17249679  0.88691647  0.46062441     0.36200
H603        H  0.19575156  0.89416892  0.07111219     0.16600
O604        O  0.15926855  0.92805415  0.08500291    -0.60300
H605        H  0.14017016  0.90763019  0.43516623     0.16600
O606        O  0.17604166  0.87366674  0.42261502    -0.60400
H607        H  0.16791662  0.85660167  0.42761931     0.43600
H608        H  0.17043943  0.94346882  0.08221879     0.43500
C609        C  0.14854804  0.76925473  0.00811740    -0.05500
C610        C  0.17200494  0.75850616  0.48653257    -0.32900
C611        C  0.19367830  0.77467889  0.48426161     0.36300
C612        C  0.19185738  0.80223869  0.00407433    -0.05900
C613        C  0.16842936  0.81069057  0.02233765    -0.32800
C614        C  0.14697210  0.79434760  0.02488758     0.36200
H615        H  0.17353104  0.73881421  0.47523048     0.16600
O616        O  0.21661628  0.76475959  0.46931580    -0.60300
H617        H  0.16646466  0.83013463  0.03444892     0.16600
O618        O  0.12502182  0.80238634  0.04614026    -0.60400
H619        H  0.12029870  0.81924528  0.03320853     0.43600
H620        H  0.21379443  0.76092221  0.43812478     0.43500
C621        C  0.26484384  0.84560920  0.41556799    -0.05500
C622        C  0.26829916  0.82528181  0.38583702    -0.32900
C623        C  0.28477844  0.82787376  0.35003999     0.36300
C624        C  0.29843183  0.85096605  0.34327096    -0.05900
C625        C  0.29558183  0.87103773  0.37313939    -0.32800
C626        C  0.27925250  0.86846707  0.40909643     0.36200
H627        H  0.25882452  0.80698138  0.38993017     0.16600
O628        O  0.28734004  0.80761214  0.32187506    -0.60300
H629        H  0.30644641  0.88871267  0.36911622     0.16600
O630        O  0.27803290  0.88820568  0.43858485    -0.60400
H631        H  0.26831545  0.90221137  0.42397633     0.43600
H632        H  0.27450401  0.81090526  0.29871576     0.43500
C633        C  0.25876927  0.84810538  0.08127589    -0.05500
C634        C  0.26727175  0.82581456  0.10269739    -0.32900
C635        C  0.28347006  0.82747722  0.13906919     0.36300
C636        C  0.29181583  0.85180506  0.15417180    -0.05900
C637        C  0.28186998  0.87405915  0.13394871    -0.32800
C638        C  0.26568199  0.87230851  0.09774700     0.36200
H639        H  0.26219087  0.80704156  0.09010526     0.16600
O640        O  0.29176585  0.80514486  0.15838151    -0.60300
H641        H  0.28754310  0.89300742  0.14493528     0.16600
O642        O  0.25742943  0.89442545  0.07765034    -0.60400
H643        H  0.27069633  0.89822943  0.05524686     0.43600
H644        H  0.27920847  0.80180423  0.18210535     0.43500
C645        C  0.58445709  0.88484326  0.15386866    -0.05500
C646        C  0.57954556  0.90712119  0.12909249    -0.32900
C647        C  0.56121312  0.90709020  0.09576600     0.36300
C648        C  0.54699990  0.88458939  0.08684586    -0.05900
C649        C  0.55190309  0.86232142  0.11160621    -0.32800
C650        C  0.57029055  0.86231176  0.14479324     0.36200
H651        H  0.59033633  0.92461623  0.13492793     0.16600
O652        O  0.55774888  0.92907635  0.07169908    -0.60300
H653        H  0.54127559  0.84475684  0.10550547     0.16600
O654        O  0.57415426  0.84010095  0.16808344    -0.60400
H655        H  0.56199642  0.84119827  0.19297782     0.43600
H656        H  0.57041966  0.92781246  0.04755104     0.43500
C657        C  0.58968282  0.88418843  0.34157988    -0.05500
C658        C  0.58067317  0.90711263  0.36050801    -0.32900
C659        C  0.56205033  0.90665451  0.39355989     0.36300
C660        C  0.55164530  0.88295482  0.40787819    -0.05900
C661        C  0.56115364  0.86004717  0.38970898    -0.32800
C662        C  0.58003549  0.86046059  0.35724823     0.36200
H663        H  0.58801659  0.92557616  0.34965199     0.16600
O664        O  0.55405718  0.92956245  0.41116495    -0.60300
H665        H  0.55374321  0.84155231  0.40028177     0.16600
O666        O  0.58830651  0.83745084  0.34038753    -0.60400
H667        H  0.60252902  0.83175848  0.35965924     0.43600
H668        H  0.56569494  0.93255584  0.43601361     0.43500
C669        C  0.80780714  0.91005338  0.99451090    -0.05500
C670        C  0.82325994  0.90682093  0.52466415    -0.32900
C671        C  0.84641798  0.92053999  0.52578767     0.36300
C672        C  0.85477779  0.93759882  0.99661843    -0.05900
C673        C  0.84059363  0.93557194  0.95784307    -0.32800
C674        C  0.81726833  0.92192567  0.95664262     0.36200
H675        H  0.81763155  0.89558911  0.55284751     0.16600
O676        O  0.86139141  0.91906813  0.56228800    -0.60300
H677        H  0.84698300  0.94549285  0.92875773     0.16600
O678        O  0.80340572  0.92129651  0.91886316    -0.60400
H679        H  0.79067368  0.93547010  0.92139516     0.43600
H680        H  0.87425371  0.90538069  0.55607449     0.43500
C681        C  0.69024446  0.88806069  0.14275935    -0.05500
C682        C  0.68765549  0.86856172  0.11182649    -0.32900
C683        C  0.70363031  0.86784100  0.07534774     0.36300
C684        C  0.72356355  0.88618237  0.07005001    -0.05900
C685        C  0.72531158  0.90636274  0.10049580    -0.32800
C686        C  0.70890295  0.90731012  0.13655881     0.36200
H687        H  0.67289898  0.85393705  0.11561679     0.16600
O688        O  0.70000813  0.84864338  0.04549022    -0.60300
H689        H  0.73898758  0.92182979  0.09691140     0.16600
O690        O  0.71156007  0.92695223  0.16585382    -0.60400
H691        H  0.72393042  0.92039999  0.18778298     0.43600
H692        H  0.68627906  0.85509587  0.02598930     0.43500
C693        C  0.73089844  0.88729875  0.40612350    -0.05500
C694        C  0.71583522  0.90925067  0.39778400    -0.32900
C695        C  0.69971644  0.91056075  0.36150911     0.36300
C696        C  0.69801560  0.88941033  0.33294604    -0.05900
C697        C  0.71443679  0.86814524  0.33976137    -0.32800
C698        C  0.73088035  0.86706575  0.37587014     0.36200
H699        H  0.71563415  0.92501547  0.42074819     0.16600
O700        O  0.68414929  0.93174784  0.35650168    -0.60300
H701        H  0.71384273  0.85185137  0.31792953     0.16600
O702        O  0.74557038  0.84544803  0.38268395    -0.60400
H703        H  0.73480733  0.83406262  0.40128532     0.43600
H704        H  0.69495686  0.94459840  0.34107025     0.43500
C705        C  0.89170012  0.43626975  0.09818209    -0.05500
C706        C  0.91602490  0.42886256  0.11421771    -0.32900
C707        C  0.91837749  0.41057346  0.14767411     0.36300
C708        C  0.89614622  0.39895484  0.16585297    -0.05900
C709        C  0.87183906  0.40680172  0.15046240    -0.32800
C710        C  0.86947436  0.42507905  0.11713899     0.36200
H711        H  0.93346547  0.43714785  0.10062105     0.16600
O712        O  0.94260093  0.40385302  0.16148538    -0.60300
H713        H  0.85436301  0.39848550  0.16387691     0.16600
O714        O  0.84519986  0.43184292  0.10363085    -0.60400
H715        H  0.84043786  0.41870496  0.08179100     0.43600
H716        H  0.94705324  0.41674842  0.18390174     0.43500
C717        C  0.89484725  0.39209893  0.35154063    -0.05500
C718        C  0.91739293  0.40516849  0.36356759    -0.32900
C719        C  0.91662763  0.42503406  0.39385170     0.36300
C720        C  0.89294414  0.43225689  0.41313148    -0.05900
C721        C  0.87049499  0.41857358  0.40230028    -0.32800
C722        C  0.87131481  0.39854827  0.37210046     0.36200
H723        H  0.93579539  0.40043375  0.34874660     0.16600
O724        O  0.93924439  0.43726922  0.40402483    -0.60300
H725        H  0.85213715  0.42338092  0.41721306     0.16600
O726        O  0.84891085  0.38572409  0.36268077    -0.60400
H727        H  0.84836688  0.37099425  0.38320227     0.43600
H728        H  0.94119800  0.45105394  0.38195733     0.43500
C729        C  0.96351522  0.13296023  0.00277651    -0.05500
C730        C  0.97565324  0.15536613  0.01723790    -0.32900
C731        C  0.96319563  0.17917426  0.01464562     0.36300
C732        C  0.93761972  0.18073958  0.99900024    -0.05900
C733        C  0.92596123  0.15826584  0.98280791    -0.32800
C734        C  0.93879087  0.13449599  0.98452370     0.36200
H735        H  0.99515691  0.15445628  0.02978611     0.16600
O736        O  0.97637159  0.20077616  0.02720035    -0.60300
H737        H  0.90657864  0.15879736  0.96999005     0.16600
O738        O  0.93024962  0.11310048  0.45707136    -0.60400
H739        H  0.91924073  0.10378972  0.47832449     0.43600
H740        H  0.98309333  0.20847414  0.99992057     0.43500
C741        C  0.85487448  0.19245493  0.00239278    -0.05500
C742        C  0.85863932  0.16761920  0.01904572    -0.32900
C743        C  0.83825224  0.14994107  0.02093260     0.36300
C744        C  0.81338799  0.15729345  0.00678603    -0.05900
C745        C  0.80973792  0.18260308  0.99119714    -0.32800
C746        C  0.83026058  0.19999865  0.98871362     0.36200
H747        H  0.87742554  0.16196203  0.03107168     0.16600
O748        O  0.84331018  0.12526368  0.03438769    -0.60300
H749        H  0.78747513  0.19145901  0.49781250     0.16600
O750        O  0.82225802  0.22776967  0.49177375    -0.60400
H751        H  0.81827919  0.23452776  0.52108313     0.43600
H752        H  0.84589520  0.12640894  0.06615481     0.43500
C753        C  0.90476446  0.26030701  0.07981393    -0.05500
C754        C  0.92590672  0.26104820  0.10847239    -0.32900
C755        C  0.92569705  0.27719930  0.14468501     0.36300
C756        C  0.90421205  0.29308755  0.15286816    -0.05900
C757        C  0.88376854  0.29342375  0.12335080    -0.32800
C758        C  0.88405122  0.27759405  0.08690049     0.36200
H759        H  0.94299428  0.24959352  0.10317185     0.16600
O760        O  0.94658042  0.27716895  0.17189075    -0.60300
H761        H  0.86751370  0.30627998  0.12820890     0.16600
O762        O  0.86411946  0.27944126  0.05782334    -0.60400
H763        H  0.84880131  0.27219528  0.07293849     0.43600
H764        H  0.94284002  0.26363075  0.19378268     0.43500
C765        C  0.90219839  0.28338993  0.34313233    -0.05500
C766        C  0.92592439  0.27734910  0.36286605    -0.32900
C767        C  0.92698408  0.26127114  0.39944166     0.36300
C768        C  0.90426719  0.25033754  0.41640574    -0.05900
C769        C  0.88083708  0.25466414  0.39511260    -0.32800
C770        C  0.87958794  0.27115980  0.35897415     0.36200
H771        H  0.94365055  0.28610832  0.35134950     0.16600
O772        O  0.95023370  0.25699463  0.41935775    -0.60300
H773        H  0.86316021  0.24660075  0.40828180     0.16600
O774        O  0.85600635  0.27578155  0.34044071    -0.60400
H775        H  0.84784648  0.28925648  0.35870124     0.43600
H776        H  0.95258552  0.27176286  0.43924157     0.43500
C777        C  0.88346508  0.58164095  0.33794038    -0.05500
C778        C  0.86106366  0.56829300  0.35070790    -0.32900
C779        C  0.86167087  0.54962184  0.38372455     0.36300
C780        C  0.88511401  0.54353595  0.40477493    -0.05900
C781        C  0.90748687  0.55702641  0.39224847    -0.32800
C782        C  0.90683559  0.57584855  0.35943372     0.36200
H783        H  0.84281127  0.57230709  0.33505402     0.16600
O784        O  0.83919167  0.53716696  0.39445386    -0.60300
H785        H  0.92568801  0.55315212  0.40816498     0.16600
O786        O  0.92909311  0.58896902  0.34972079    -0.60400
H787        H  0.93855326  0.57782427  0.32892545     0.43600
H788        H  0.83041643  0.54858616  0.41567943     0.43500
C789        C  0.88110695  0.58482869  0.15058184    -0.05500
C790        C  0.90514810  0.57631032  0.13495601    -0.32900
C791        C  0.90682344  0.55715626  0.10337900     0.36300
C792        C  0.88414215  0.54579903  0.08693835    -0.05900
C793        C  0.86008532  0.55476389  0.10174655    -0.32800
C794        C  0.85840911  0.57401850  0.13320134     0.36200
H795        H  0.92289666  0.58433640  0.14747790     0.16600
O796        O  0.93083018  0.54937965  0.08970437    -0.60300
H797        H  0.84235363  0.54669700  0.08923106     0.16600
O798        O  0.83442040  0.58216340  0.14633467    -0.60400
H799        H  0.82896975  0.56972046  0.16904560     0.43600
H800        H  0.93541939  0.56123993  0.06561737     0.43500
C801        C  0.78819934  0.83141322  0.99218716    -0.05500
C802        C  0.81316602  0.83479221  0.47665006    -0.32900
C803        C  0.83191919  0.81556093  0.48024829     0.36300
C804        C  0.82505647  0.79151077  0.99879776    -0.05900
C805        C  0.79855766  0.78576905  0.99812685    -0.32800
C806        C  0.78012912  0.80557869  0.99561136     0.36200
H807        H  0.81931538  0.85417053  0.46876565     0.16600
O808        O  0.85707143  0.82158482  0.47116637    -0.60300
H809        H  0.79220269  0.76591205  0.99956379     0.16600
O810        O  0.75436805  0.79953947  0.99650949    -0.60400
H811        H  0.74919955  0.79842592  0.96562940     0.43600
H812        H  0.86297069  0.83196127  0.49619300     0.43500
C813        C  0.94171470  0.84013390  0.00209783    -0.05500
C814        C  0.93549832  0.82669855  0.04060987    -0.32900
C815        C  0.91867289  0.80551158  0.04018600     0.36300
C816        C  0.90788482  0.79735276  0.00084932    -0.05900
C817        C  0.91308471  0.81010149  0.46198609    -0.32800
C818        C  0.92917601  0.83153614  0.46171314     0.36200
H819        H  0.94423801  0.83213799  0.07108193     0.16600
O820        O  0.91411367  0.79209878  0.07783343    -0.60300
H821        H  0.90577974  0.80339509  0.43116097     0.16600
O822        O  0.93521563  0.84280621  0.42263846    -0.60400
H823        H  0.94916739  0.83199806  0.41012157     0.43600
H824        H  0.90206821  0.80301034  0.09485453     0.43500
C825        C  0.87669987  0.68723201  0.34514488    -0.05500
C826        C  0.85478964  0.68731712  0.37208312    -0.32900
C827        C  0.85373192  0.70270980  0.40911597     0.36300
C828        C  0.87447498  0.71922103  0.41937108    -0.05900
C829        C  0.89672482  0.71839831  0.39272982    -0.32800
C830        C  0.89789024  0.70274111  0.35609677     0.36200
H831        H  0.83846727  0.67504838  0.36491471     0.16600
O832        O  0.83201368  0.70182414  0.43473749    -0.60300
H833        H  0.91384872  0.72925939  0.39970625     0.16600
O834        O  0.91971732  0.70330222  0.33068895    -0.60400
H835        H  0.93215967  0.69169797  0.34532531     0.43600
H836        H  0.83464490  0.68694424  0.45442192     0.43500
C837        C  0.87239860  0.72738221  0.08170098    -0.05500
C838        C  0.85002972  0.72176663  0.10562924    -0.32900
C839        C  0.85099661  0.70529418  0.14190225     0.36300
C840        C  0.87466546  0.69392562  0.15463003    -0.05900
C841        C  0.89724566  0.70095605  0.13188733    -0.32800
C842        C  0.89619333  0.71737217  0.09572955     0.36200
H843        H  0.83153779  0.72907608  0.09480091     0.16600
O844        O  0.82845907  0.69959416  0.16333691    -0.60300
H845        H  0.91572504  0.69277573  0.14082296     0.16600
O846        O  0.91833188  0.72213387  0.07248219    -0.60400
H847        H  0.92471360  0.73891851  0.08331818     0.43600
H848        H  0.82697183  0.71274088  0.18647044     0.43500
C849        C  0.87076611  0.73854932  0.95894560     0.86400
C850        C  0.84602414  0.75488708  0.96135390    -0.53800
C851        C  0.84443968  0.76944777  0.49227787     0.09400
C852        C  0.86649581  0.76738950  0.52568964     0.20300
C853        C  0.89259803  0.75854484  0.96251568    -0.54500
C854        C  0.89081285  0.77335716  0.49830847     0.09500
C855        C  0.87173508  0.72381565  0.00191300    -0.54100
C856        C  0.86857902  0.73825656  0.53699490     0.10000
H857        H  0.83184150  0.75545043  0.93551144     0.14600
H858        H  0.86369714  0.78014766  0.55410854     0.00300
H859        H  0.90749869  0.76176123  0.93858172     0.14900
H860        H  0.87350776  0.70204958  0.50418114     0.14600
O861        O  0.89526038  0.66597728  0.70383873    -0.74500
O862        O  0.89969070  0.61280737  0.79112840    -0.74500
O863        O  0.89972656  0.61393274  0.70320287    -0.74600
O864        O  0.89537018  0.66458490  0.79203445    -0.74600
O865        O  0.85252655  0.66107026  0.79334542    -0.74500
O866        O  0.85690165  0.61065426  0.70352791    -0.74500
O867        O  0.85690949  0.60927080  0.79145913    -0.74500
O868        O  0.85246916  0.66271220  0.70485504    -0.74600
Ni869      Ni  0.89901829  0.63949731  0.74750437     1.25400
Ni870      Ni  0.85318016  0.63584768  0.74823322     1.25400
C871        C  0.87309430  0.67306070  0.68955070     0.87700
C872        C  0.87903345  0.60226635  0.80591386     0.87600
C873        C  0.87899899  0.60376195  0.68876469     0.87700
C874        C  0.87340385  0.67079823  0.80806230     0.87800
C875        C  0.90300484  0.24141831  0.53944176     0.86400
C876        C  0.87710939  0.22739348  0.53693521    -0.53800
C877        C  0.87476221  0.21155807  0.50222686     0.09400
C878        C  0.89927542  0.21211763  0.97357741     0.20300
C879        C  0.92268073  0.21920307  0.53879428    -0.54500
C880        C  0.92109257  0.20324816  0.50353985     0.09500
C881        C  0.90627250  0.25506609  0.49579882    -0.54100
C882        C  0.90309676  0.24090295  0.96252643     0.10000
H883        H  0.86246699  0.22849595  0.56222721     0.14600
H884        H  0.89706467  0.19972838  0.94456152     0.00300
H885        H  0.93453652  0.21446820  0.56636442     0.14900
H886        H  0.90933778  0.27569713  0.49278399     0.14600
O887        O  0.91835735  0.36901421  0.71009814    -0.74500
O888        O  0.92079787  0.31475402  0.79499784    -0.74500
O889        O  0.92227440  0.31734588  0.70683276    -0.74600
O890        O  0.91672035  0.36666485  0.79813250    -0.74600
O891        O  0.87390208  0.36336203  0.79653813    -0.74500
O892        O  0.87933701  0.31469766  0.70471031    -0.74500
O893        O  0.87801477  0.31141444  0.79292601    -0.74500
O894        O  0.87551454  0.36621228  0.70866175    -0.74600
Ni895      Ni  0.92106270  0.34201883  0.75265950     1.25400
Ni896      Ni  0.87517966  0.33875263  0.75071662     1.25400
C897        C  0.89657932  0.37639499  0.69483070     0.87700
C898        C  0.89982444  0.30426985  0.80850753     0.87600
C899        C  0.90160094  0.30858085  0.68981217     0.87700
C900        C  0.89438532  0.37322450  0.81241810     0.87800
O901        O  0.86921418  0.46294486  0.54575927    -0.74500
O902        O  0.86318204  0.51174536  0.95462886    -0.74500
O903        O  0.86696002  0.45951491  0.95915090    -0.74600
O904        O  0.86593009  0.51494891  0.54263289    -0.74600
O905        O  0.90880581  0.51760380  0.54253157    -0.74500
O906        O  0.90979946  0.46257127  0.95775394    -0.74500
O907        O  0.90600350  0.51468331  0.95302129    -0.74500
O908        O  0.91207573  0.46546329  0.54533454    -0.74600
Ni909      Ni  0.86604168  0.48810158  0.50038018     1.25400
Ni910      Ni  0.91193096  0.49112195  0.50002714     1.25400
C911        C  0.89114321  0.45561266  0.56041117     0.87700
C912        C  0.88382194  0.52181830  0.93895633     0.87600
C913        C  0.88895748  0.45196026  0.94478118     0.87700
C914        C  0.88680111  0.52507956  0.55672083     0.87800
C915        C  0.74199411  0.88176627  0.52865202     0.86400
C916        C  0.75346106  0.85460298  0.52368123    -0.53800
C917        C  0.76862485  0.85131707  0.48775321     0.09400
C918        C  0.77233510  0.87727872  0.96442346     0.20300
C919        C  0.76591989  0.89934791  0.52696420    -0.54500
C920        C  0.78106496  0.89611737  0.49102634     0.09500
C921        C  0.72786820  0.88714778  0.48622848    -0.54100
C922        C  0.74439143  0.88528415  0.95307185     0.10000
H923        H  0.75180657  0.84008485  0.54898610     0.14600
H924        H  0.78510469  0.87434004  0.93581955     0.00300
H925        H  0.77194284  0.91204572  0.55272927     0.14900
H926        H  0.70760093  0.89252500  0.48509429     0.14600
O927        O  0.67148852  0.90930236  0.78551174    -0.74500
O928        O  0.61626309  0.90665330  0.70315188    -0.74500
O929        O  0.61927892  0.90827502  0.79072972    -0.74600
O930        O  0.66829666  0.90768554  0.69752698    -0.74600
O931        O  0.66843544  0.86473143  0.69872865    -0.74500
O932        O  0.62109205  0.86544168  0.79406575    -0.74500
O933        O  0.61666189  0.86383273  0.70660937    -0.74500
O934        O  0.67321100  0.86646933  0.78670295    -0.74600
Ni935      Ni  0.64386079  0.90950523  0.74418431     1.25400
Ni936      Ni  0.64495342  0.86359713  0.74667234     1.25400
C937        C  0.68129177  0.88835637  0.80023028     0.87700
C938        C  0.60728510  0.88480615  0.69120933     0.87600
C939        C  0.61201249  0.88691100  0.80768581     0.87700
C940        C  0.67582279  0.88608542  0.68198170     0.87800
C941        C  0.24552994  0.84638861  0.95913641     0.86400
C942        C  0.22865168  0.82199367  0.96296911    -0.53800
C943        C  0.21391995  0.81899149  0.49483316     0.09400
C944        C  0.21737270  0.84300687  0.52397331     0.20300
C945        C  0.22568311  0.86823304  0.96319397    -0.54500
C946        C  0.21173483  0.86555014  0.49273337     0.09500
C947        C  0.26111833  0.84724004  0.00111924    -0.54100
C948        C  0.24656261  0.84436247  0.53356498     0.10000
H949        H  0.22574226  0.80879291  0.93639934     0.14600
H950        H  0.20531150  0.84307000  0.55381076     0.00300
H951        H  0.22266926  0.88255609  0.93797970     0.14900
H952        H  0.28260901  0.84535956  0.49895309     0.14600
O953        O  0.31479725  0.87760246  0.70021554    -0.74500
O954        O  0.36730159  0.88779034  0.78638979    -0.74500
O955        O  0.36666632  0.88624136  0.69863288    -0.74600
O956        O  0.31582493  0.87895948  0.78895576    -0.74600
O957        O  0.32287183  0.83664745  0.79007888    -0.74500
O958        O  0.37368184  0.84398298  0.70104486    -0.74500
O959        O  0.37419049  0.84549393  0.78829508    -0.74500
O960        O  0.32214862  0.83540460  0.70193553    -0.74600
Ni961      Ni  0.34077869  0.88416617  0.74340919     1.25400
Ni962      Ni  0.34838535  0.83891539  0.74536394     1.25400
C963        C  0.31004785  0.85483994  0.68621431     0.87700
C964        C  0.37957918  0.86827755  0.80140022     0.87600
C965        C  0.37902971  0.86625192  0.68562519     0.87700
C966        C  0.31146458  0.85658634  0.80517712     0.87800
O967        O  0.47100400  0.85800665  0.94578626    -0.74500
O968        O  0.52169135  0.85965015  0.54312518    -0.74500
O969        O  0.46984998  0.85536334  0.54042093    -0.74600
O970        O  0.52299970  0.86243267  0.94949462    -0.74600
O971        O  0.51888051  0.90514256  0.94871715    -0.74500
O972        O  0.46603176  0.89805780  0.53952168    -0.74500
O973        O  0.51814373  0.90237223  0.54226773    -0.74500
O974        O  0.46656545  0.90062217  0.94615041    -0.74600
Ni975      Ni  0.49684296  0.85585476  0.49785262     1.25400
Ni976      Ni  0.49276580  0.90156541  0.49677948     1.25400
C977        C  0.46035940  0.87848173  0.93100858     0.87700
C978        C  0.52826820  0.88173769  0.55774449     0.87600
C979        C  0.45922915  0.87604759  0.55448871     0.87700
C980        C  0.53004160  0.88457852  0.93542328     0.87800
C981        C  0.75660189  0.11565307  0.96720833     0.86400
C982        C  0.77537853  0.13866715  0.96914236    -0.53800
C983        C  0.79033964  0.13953300  0.50410255     0.09400
C984        C  0.78750721  0.11503569  0.53213111     0.20300
C985        C  0.77455334  0.09216238  0.96927066    -0.54500
C986        C  0.79142218  0.09317313  0.49902341     0.09500
C987        C  0.74251464  0.11607136  0.01090530    -0.54100
C988        C  0.75864869  0.11416579  0.54498483     0.10000
H989        H  0.77765206  0.15287362  0.94382315     0.14600
H990        H  0.80080876  0.11433457  0.56023329     0.00300
H991        H  0.77532297  0.07774480  0.94383410     0.14900
H992        H  0.72140539  0.11520072  0.51437481     0.14600
O993        O  0.69009798  0.08423099  0.71279785    -0.74500
O994        O  0.63382656  0.07626980  0.79411379    -0.74500
O995        O  0.63826312  0.07623593  0.70654002    -0.74600
O996        O  0.68522073  0.08383124  0.80116213    -0.74600
O997        O  0.67913337  0.12634472  0.79962579    -0.74500
O998        O  0.63200454  0.11869029  0.70577215    -0.74500
O999        O  0.62785765  0.11871718  0.79297506    -0.74500
O1000       O  0.68338057  0.12655150  0.71206887    -0.74600
Ni1001     Ni  0.66217437  0.07860171  0.75361062     1.25400
Ni1002     Ni  0.65542459  0.12404076  0.75254709     1.25400
C1003       C  0.69575782  0.10680247  0.69841151     0.87700
C1004       C  0.62159310  0.09634562  0.80710799     0.87600
C1005       C  0.62697367  0.09620037  0.69112078     0.87700
C1006       C  0.68954938  0.10631649  0.81642412     0.87800
C1007       C  0.26007507  0.08648482  0.54670850     0.86400
C1008       C  0.24412751  0.11141080  0.54433730    -0.53800
C1009       C  0.22919963  0.11372362  0.50825595     0.09400
C1010       C  0.23147073  0.09178730  0.98123846     0.20300
C1011       C  0.23964798  0.06515529  0.54248289    -0.54500
C1012       C  0.22419531  0.06738548  0.50680972     0.09500
C1013       C  0.27528862  0.08545578  0.50422726    -0.54100
C1014       C  0.26038505  0.08811951  0.97050898     0.10000
H1015       H  0.24374528  0.12558182  0.57019955     0.14600
H1016       H  0.21914181  0.09417525  0.95217064     0.00300
H1017       H  0.23579885  0.05069838  0.56699407     0.14900
H1018       H  0.29615964  0.08341552  0.50287457     0.14600
O1019       O  0.38685342  0.06563547  0.71620037    -0.74500
O1020       O  0.33346946  0.06592918  0.80313015    -0.74500
O1021       O  0.33481866  0.06495080  0.71506319    -0.74600
O1022       O  0.38568179  0.06660422  0.80428395    -0.74600
O1023       O  0.38489305  0.10945230  0.80324576    -0.74500
O1024       O  0.33439420  0.10784787  0.71343276    -0.74500
O1025       O  0.33264017  0.10875495  0.80167041    -0.74500
O1026       O  0.38634205  0.10848254  0.71527596    -0.74600
Ni1027     Ni  0.36019385  0.06426504  0.75978853     1.25400
Ni1028     Ni  0.35950392  0.11015750  0.75840136     1.25400
C1029       C  0.39534336  0.08706583  0.70107843     0.87700
C1030       C  0.32433934  0.08732862  0.81714576     0.87600
C1031       C  0.32673055  0.08614313  0.69871310     0.87700
C1032       C  0.39372466  0.08827963  0.81861134     0.87800
O1033       O  0.53372271  0.11249231  0.95782585    -0.74500
O1034       O  0.48334859  0.10845458  0.55334701    -0.74500
O1035       O  0.53559546  0.11100634  0.54991464    -0.74600
O1036       O  0.48178697  0.11022847  0.96336203    -0.74600
O1037       O  0.48384214  0.06741910  0.96320388    -0.80100
O1038       O  0.53785772  0.06818084  0.54964015    -0.74500
O1039       O  0.48519188  0.06563542  0.55269496    -0.74500
O1040       O  0.53599782  0.06970553  0.95772606    -0.74600
Ni1041     Ni  0.50856997  0.11155499  0.50807685     1.25400
Ni1042     Ni  0.51098561  0.06571291  0.50725252     1.25400
C1043       C  0.54288049  0.09155525  0.94204394     0.87700
C1044       C  0.47549261  0.08661169  0.56760126     0.87600
C1045       C  0.54592991  0.09002634  0.56319957     0.87700
C1046       C  0.47374897  0.08847759  0.94951948     0.87800
C1047       C  0.09942099  0.72208824  0.55596536     0.86400
C1048       C  0.12543865  0.73551831  0.54906860    -0.53800
C1049       C  0.12726407  0.74914369  0.51150486     0.09400
C1050       C  0.10353911  0.74899231  0.98423324     0.20300
C1051       C  0.07970920  0.74420180  0.55223027    -0.54500
C1052       C  0.08115191  0.75779152  0.51408562     0.09500
C1053       C  0.09505518  0.70586537  0.51532961    -0.54100
C1054       C  0.09919668  0.71991086  0.97754717     0.10000
H1055       H  0.14062699  0.73557878  0.57326719     0.14600
H1056       H  0.10571675  0.75983101  0.95335526     0.00300
H1057       H  0.06720389  0.75026416  0.57835619     0.14900
H1058       H  0.09146930  0.68525693  0.51654753     0.14600
O1059       O  0.07852504  0.64648860  0.80976888    -0.74500
O1060       O  0.08153989  0.59373657  0.72246881    -0.74500
O1061       O  0.08092753  0.59455327  0.81030377    -0.74600
O1062       O  0.07894579  0.64600654  0.72176428    -0.74600
O1063       O  0.12201093  0.64743193  0.72141757    -0.74500
O1064       O  0.12382593  0.59690958  0.81083933    -0.74500
O1065       O  0.12447802  0.59564576  0.72313468    -0.74500
O1066       O  0.12144889  0.64884158  0.80923135    -0.74600
Ni1067     Ni  0.07842874  0.62016194  0.76601284     1.25400
Ni1068     Ni  0.12444506  0.62230794  0.76618710     1.25400
C1069       C  0.09954191  0.65619611  0.82427053     0.87700
C1070       C  0.10356245  0.58590535  0.70842554     0.87600
C1071       C  0.10275375  0.58732694  0.82539946     0.87700
C1072       C  0.10020951  0.65485873  0.70663659     0.87800
C1073       C  0.13207231  0.23159914  0.98124275     0.86400
C1074       C  0.15762772  0.21673008  0.98485092    -0.53800
C1075       C  0.15579985  0.19739787  0.51310323     0.09400
C1076       C  0.13181050  0.19721033  0.54290204     0.20300
C1077       C  0.11103229  0.21090323  0.97861404    -0.54500
C1078       C  0.10949054  0.19240855  0.51120386     0.09500
C1079       C  0.12821077  0.24352322  0.02636105    -0.54100
C1080       C  0.12827919  0.22541581  0.55782533     0.10000
H1081       H  0.17318164  0.21845920  0.96124618     0.14600
H1082       H  0.13298528  0.18296927  0.56978233     0.00300
H1083       H  0.09700259  0.21018302  0.95257180     0.14900
H1084       H  0.12518731  0.26306214  0.53123553     0.14600
O1085       O  0.10143897  0.29539134  0.72524711    -0.74500
O1086       O  0.09955031  0.35254525  0.80337652    -0.74500
O1087       O  0.09860267  0.34711627  0.71604610    -0.74600
O1088       O  0.10274372  0.30118674  0.81283323    -0.74600
O1089       O  0.14582583  0.30280496  0.80936537    -0.74500
O1090       O  0.14156096  0.34989172  0.71497858    -0.74500
O1091       O  0.14252140  0.35433085  0.80258508    -0.74500
O1092       O  0.14434699  0.29778680  0.72202555    -0.74600
Ni1093     Ni  0.09905246  0.32391560  0.76437995     1.25400
Ni1094     Ni  0.14510291  0.32625748  0.76202285     1.25400
C1095       C  0.12308697  0.28730559  0.71023263     0.87700
C1096       C  0.12066078  0.36251578  0.81674768     0.87600
C1097       C  0.11948083  0.35644210  0.70011357     0.87700
C1098       C  0.12501464  0.29497123  0.82729615     0.87800
O1099       O  0.12894747  0.49957838  0.55946075    -0.74500
O1100       O  0.13281181  0.44985055  0.96763641    -0.74500
O1101       O  0.12765453  0.50153595  0.97198461    -0.74600
O1102       O  0.13338272  0.44758110  0.55654485    -0.74600
O1103       O  0.09055617  0.44353374  0.55845800    -0.74500
O1104       O  0.08483719  0.49793805  0.97186774    -0.74500
O1105       O  0.08998233  0.44625901  0.96639889    -0.74500
O1106       O  0.08620176  0.49558025  0.56276474    -0.74600
Ni1107     Ni  0.13174762  0.47438422  0.51407492     1.25400
Ni1108     Ni  0.08590847  0.47050374  0.51688705     1.25400
C1109       C  0.10714662  0.50594685  0.57621308     0.87700
C1110       C  0.11230659  0.44000733  0.95159088     0.87600
C1111       C  0.10552620  0.50866563  0.95803484     0.87700
C1112       C  0.11300957  0.43661214  0.57121298     0.87800
O1113       O  0.06900322  0.00395961  0.97259904    -0.74500
O1114       O  0.11814165  0.94867382  0.97444483    -0.74500
O1115       O  0.06600480  0.95199262  0.97279502    -0.74600
O1116       O  0.12126308  0.00053316  0.97299913    -0.74600
O1117       O  0.12083349  0.99854382  0.53893087    -0.74500
O1118       O  0.06561580  0.94950661  0.53927053    -0.74500
O1119       O  0.11813643  0.94674958  0.53878752    -0.74500
O1120       O  0.06836066  0.00153406  0.54043460    -0.74600
Ni1121     Ni  0.09359909  0.97628439  0.97067994     1.25400
Ni1122     Ni  0.09321193  0.97406820  0.54191155     1.25400
C1123       C  0.06013648  0.01089771  0.50458775     0.87700
C1124       C  0.12666483  0.93817866  0.50252247     0.87600
C1125       C  0.05636087  0.94203961  0.50294354     0.87700
C1126       C  0.13045910  0.00644639  0.50285615     0.87800
O1127       O  0.03183651  0.04003188  0.54153008    -0.74500
O1128       O  0.98423480  0.09699302  0.54122910    -0.74500
O1129       O  0.97935380  0.04476153  0.53969971    -0.74600
O1130       O  0.03557469  0.09221827  0.54441693    -0.74600
O1131       O  0.03731285  0.09558190  0.97239405    -0.74500
O1132       O  0.98195429  0.04663554  0.96911760    -0.74500
O1133       O  0.98559849  0.09867661  0.96859181    -0.74500
O1134       O  0.03425424  0.04329699  0.97160638    -0.74600
Ni1135     Ni  0.00766696  0.06829376  0.54431119     1.25400
Ni1136     Ni  0.00984915  0.07092859  0.96783198     1.25400
C1137       C  0.04088655  0.03183443  0.50524608     0.87700
C1138       C  0.97749209  0.10687023  0.50478787     0.87600
C1139       C  0.97076794  0.03746019  0.50287929     0.87700
C1140       C  0.04453130  0.10192298  0.50928194     0.87800
O1141       O  0.02662034  0.91799818  0.97060420    -0.74500
O1142       O  0.97101421  0.86949774  0.96722084    -0.74500
O1143       O  0.97452176  0.92170282  0.96688773    -0.74600
O1144       O  0.02270107  0.86595292  0.96932990    -0.74600
O1145       O  0.01852842  0.86411910  0.53914150    -0.74500
O1146       O  0.97267120  0.92189455  0.53555863    -0.74500
O1147       O  0.96721972  0.87014364  0.53739855    -0.74500
O1148       O  0.02477586  0.91623942  0.53834389    -0.74600
Ni1149     Ni  0.99880025  0.89390001  0.96593611     1.25400
Ni1150     Ni  0.99583672  0.89325537  0.54020739     1.25400
C1151       C  0.03464189  0.92395254  0.50241893     0.87700
C1152       C  0.95907411  0.86145582  0.50116956     0.87600
C1153       C  0.96507875  0.93054456  0.49876090     0.87700
C1154       C  0.02638586  0.85428212  0.50336451     0.87800
O1155       O  0.93934585  0.96132121  0.96553034    -0.74500
O1156       O  0.88881030  0.01579272  0.96709451    -0.74500
O1157       O  0.94144582  0.01339495  0.96739676    -0.74600
O1158       O  0.88700336  0.96394567  0.96340000    -0.74600
O1159       O  0.88450656  0.96091255  0.53025688    -0.74500
O1160       O  0.93880557  0.01108693  0.53664751    -0.74500
O1161       O  0.88627705  0.01271762  0.53472628    -0.74500
O1162       O  0.93674959  0.95934092  0.53379936    -0.74600
Ni1163     Ni  0.91423956  0.98870842  0.96324238     1.25400
Ni1164     Ni  0.91153868  0.98598600  0.53639502     1.25400
C1165       C  0.94589251  0.95125505  0.49777090     0.87700
C1166       C  0.87805134  0.02226325  0.49909768     0.87600
C1167       C  0.94883063  0.01962072  0.50128951     0.87700
C1168       C  0.87600077  0.95395160  0.49303300     0.87800
C1169       C  0.11943555  0.38335450  0.84967176    -0.05500
C1170       C  0.09662913  0.39782815  0.85431980    -0.32900
C1171       C  0.09408914  0.41642391  0.88693695     0.36300
C1172       C  0.11459804  0.42097816  0.91583794    -0.05900
C1173       C  0.13759140  0.40685667  0.91069477    -0.32800
C1174       C  0.14011665  0.38821860  0.87809916     0.36200
H1175       H  0.08056041  0.39468729  0.83260639     0.16600
O1176       O  0.07172965  0.43054554  0.88938255    -0.60300
H1177       H  0.15355483  0.40983141  0.93269013     0.16600
O1178       O  0.16238604  0.37395177  0.87592798    -0.60400
H1179       H  0.17460342  0.38455071  0.85871820     0.43600
H1180       H  0.05925698  0.41938378  0.90508890     0.43500
C1181       C  0.11534445  0.41557451  0.60312172    -0.05500
C1182       C  0.09623959  0.39643101  0.60505483    -0.32900
C1183       C  0.09768187  0.37653350  0.63560165     0.36300
C1184       C  0.11825954  0.37582337  0.66525029    -0.05900
C1185       C  0.13761330  0.39465598  0.66271436    -0.32800
C1186       C  0.13633004  0.41438334  0.63194023     0.36200
H1187       H  0.08020610  0.39678123  0.58260924     0.16600
O1188       O  0.07895029  0.35789070  0.63608291    -0.60300
H1189       H  0.15347387  0.39454906  0.68551220     0.16600
O1190       O  0.15491584  0.43317879  0.63198622    -0.60400
H1191       H  0.16964645  0.42580939  0.61559723     0.43600
H1192       H  0.08524338  0.34443034  0.61575264     0.43500
C1193       C  0.09377264  0.16860141  0.51120387    -0.05500
C1194       C  0.08334075  0.15918041  0.55009279    -0.32900
C1195       C  0.06791268  0.13703192  0.55042498     0.36300
C1196       C  0.06305730  0.12365082  0.51132753    -0.05900
C1197       C  0.07597910  0.13373969  0.97255691    -0.32800
C1198       C  0.09188137  0.15542519  0.97225108     0.36200
H1199       H  0.08653781  0.16943311  0.58015401     0.16600
O1200       O  0.05729347  0.12906333  0.58903515    -0.60300
H1201       H  0.07304238  0.12347545  0.94244124     0.16600
O1202       O  0.10371879  0.16251212  0.93414119    -0.60400
H1203       H  0.12017728  0.15279762  0.93344698     0.43600
H1204       H  0.04104679  0.13903715  0.59207569     0.43500
C1205       C  0.12689983  0.27934135  0.86622804    -0.05500
C1206       C  0.13287632  0.25328501  0.86270023    -0.32900
C1207       C  0.13488513  0.23804677  0.89984228     0.36300
C1208       C  0.13132974  0.24903701  0.94154006    -0.05900
C1209       C  0.12606737  0.27563513  0.94444660    -0.32800
C1210       C  0.12389448  0.29069401  0.90709956     0.36200
H1211       H  0.13568641  0.24466268  0.83103900     0.16600
O1212       O  0.14044034  0.21233680  0.89514154    -0.60300
H1213       H  0.12325265  0.28519620  0.97503569     0.16600
O1214       O  0.11867081  0.31652097  0.91081099    -0.60400
H1215       H  0.13577022  0.32508778  0.91051157     0.43600
H1216       H  0.12436902  0.20438041  0.88413515     0.43500
C1217       C  0.12471355  0.23454478  0.60295519    -0.05500
C1218       C  0.14577500  0.23537014  0.63130103    -0.32900
C1219       C  0.14515714  0.25140715  0.66804084     0.36300
C1220       C  0.12314275  0.26668085  0.67683025    -0.05900
C1221       C  0.10128730  0.26380597  0.65047426    -0.32800
C1222       C  0.10199715  0.24804592  0.61383397     0.36200
H1223       H  0.16337702  0.22510722  0.62325692     0.16600
O1224       O  0.16628798  0.25236821  0.69461773    -0.60300
H1225       H  0.08407210  0.27514248  0.65652785     0.16600
O1226       O  0.08112644  0.24778020  0.58659430    -0.60400
H1227       H  0.07191315  0.23152047  0.59338393     0.43600
H1228       H  0.17878288  0.26378611  0.67952226     0.43500
C1229       C  0.10624451  0.52583369  0.61103761    -0.05500
C1230       C  0.12727003  0.54259653  0.61652126    -0.32900
C1231       C  0.12676348  0.56202078  0.64807889     0.36300
C1232       C  0.10484164  0.56525387  0.67496352    -0.05900
C1233       C  0.08391438  0.54834671  0.66978351    -0.32800
C1234       C  0.08457096  0.52869376  0.63861874     0.36200
H1235       H  0.14412636  0.54096221  0.59576332     0.16600
O1236       O  0.14741154  0.57842375  0.65098183    -0.60300
H1237       H  0.06701007  0.55012742  0.69039678     0.16600
O1238       O  0.06391248  0.51231587  0.63573525    -0.60400
H1239       H  0.06830227  0.49749265  0.65471944     0.43600
H1240       H  0.16033425  0.56910001  0.66874474     0.43500
C1241       C  0.10421470  0.52930793  0.92508230    -0.05500
C1242       C  0.12734026  0.53981606  0.90909217    -0.32900
C1243       C  0.12720645  0.55878988  0.87709202     0.36300
C1244       C  0.10357286  0.56764958  0.86004167    -0.05900
C1245       C  0.08037850  0.55741391  0.87640459    -0.32800
C1246       C  0.08052870  0.53837783  0.90851176     0.36200
H1247       H  0.14582257  0.53322222  0.92115003     0.16600
O1248       O  0.15041629  0.56807048  0.86226996    -0.60300
H1249       H  0.06194685  0.56402437  0.86415490     0.16600
O1250       O  0.05739077  0.52904402  0.92356743    -0.60400
H1251       H  0.05253426  0.51525829  0.90290925     0.43600
H1252       H  0.15490230  0.58228104  0.88234447     0.43500
C1253       C  0.06579372  0.78170294  0.50678195    -0.05500
C1254       C  0.07711239  0.80287520  0.48537372    -0.32900
C1255       C  0.06463859  0.82683111  0.48423052     0.36300
C1256       C  0.04042043  0.82976177  0.50423544    -0.05900
C1257       C  0.02914656  0.80939364  0.02380665    -0.32800
C1258       C  0.04065049  0.78503857  0.02335378     0.36200
H1259       H  0.09614003  0.80129292  0.47100889     0.16600
O1260       O  0.07652011  0.84738355  0.46450570    -0.60300
H1261       H  0.00997599  0.81157305  0.03762189     0.16600
O1262       O  0.02678772  0.76422225  0.03813047    -0.60400
H1263       H  0.02311168  0.76763066  0.06920111     0.43600
H1264       H  0.08730270  0.85527903  0.48733972     0.43500
C1265       C  0.09932021  0.70553237  0.59681386    -0.05500
C1266       C  0.08098567  0.70861136  0.63045022    -0.32900
C1267       C  0.08112166  0.69237251  0.66673273     0.36300
C1268       C  0.09987497  0.67294940  0.67017516    -0.05900
C1269       C  0.11827810  0.66993964  0.63731051    -0.32800
C1270       C  0.11805496  0.68581263  0.60087385     0.36200
H1271       H  0.06611183  0.72309211  0.62921033     0.16600
O1272       O  0.06335374  0.69614737  0.69926662    -0.60300
H1273       H  0.13256958  0.65471038  0.63929107     0.16600
O1274       O  0.13575816  0.68131629  0.56845702    -0.60400
H1275       H  0.15239203  0.68794818  0.57956591     0.43600
H1276       H  0.04748399  0.68729918  0.68941356     0.43500
C1277       C  0.09847931  0.67527738  0.86019825    -0.05500
C1278       C  0.07674371  0.67582078  0.88767551    -0.32900
C1279       C  0.07630637  0.69126729  0.92480355     0.36300
C1280       C  0.09764395  0.70689672  0.93488365    -0.05900
C1281       C  0.11872177  0.70767464  0.90627125    -0.32800
C1282       C  0.11942600  0.69179557  0.86944163     0.36200
H1283       H  0.06040283  0.66339359  0.88144891     0.16600
O1284       O  0.05525823  0.69024922  0.95194237    -0.60300
H1285       H  0.13525007  0.71962589  0.91366948     0.16600
O1286       O  0.14071531  0.69253521  0.84284531    -0.60400
H1287       H  0.15379650  0.68154888  0.85738867     0.43600
H1288       H  0.04484856  0.70569071  0.94463396     0.43500
C1289       C  0.45486423  0.08610423  0.60155100    -0.05500
C1290       C  0.44792022  0.10919362  0.62232323    -0.32900
C1291       C  0.42867789  0.10982901  0.65433647     0.36300
C1292       C  0.41571788  0.08702806  0.66667709    -0.05900
C1293       C  0.42234978  0.06393737  0.64547770    -0.32800
C1294       C  0.44147975  0.06337688  0.61300820     0.36200
H1295       H  0.45756232  0.12704351  0.61396533     0.16600
O1296       O  0.42275436  0.13300382  0.67317371    -0.60300
H1297       H  0.41247443  0.04619235  0.65369655     0.16600
O1298       O  0.44667838  0.04051980  0.59255306    -0.60400
H1299       H  0.43482223  0.04008054  0.56737935     0.43600
H1300       H  0.43483373  0.13462759  0.69789534     0.43500
C1301       C  0.41360067  0.08864150  0.85309526    -0.05500
C1302       C  0.42442631  0.06528046  0.86735758    -0.32900
C1303       C  0.44378520  0.06480529  0.89879126     0.36300
C1304       C  0.45271198  0.08801077  0.91702475    -0.05900
C1305       C  0.44158067  0.11136132  0.90327890    -0.32800
C1306       C  0.42220781  0.11183783  0.87187166     0.36200
H1307       H  0.41810727  0.04714732  0.85378620     0.16600
O1308       O  0.45370973  0.04146356  0.91137041    -0.60300
H1309       H  0.44794060  0.12950599  0.91676012     0.16600
O1310       O  0.41217082  0.13518407  0.85952215    -0.60400
H1311       H  0.39761942  0.13839918  0.87984442     0.43600
H1312       H  0.46760097  0.03763447  0.89005659     0.43500
C1313       C  0.19958966  0.05275527  0.50400057    -0.05500
C1314       C  0.18491610  0.04914972  0.54199840    -0.32900
C1315       C  0.16219361  0.03482713  0.54182700     0.36300
C1316       C  0.15333964  0.02370921  0.50298045    -0.05900
C1317       C  0.16694256  0.03012341  0.96982805    -0.32800
C1318       C  0.18992778  0.04437724  0.96954901     0.36200
H1319       H  0.19102720  0.05760161  0.57234251     0.16600
O1320       O  0.14909281  0.03155032  0.58021996    -0.60300
H1321       H  0.16055014  0.02152313  0.93977711     0.16600
O1322       O  0.20344278  0.04725054  0.93147037    -0.60400
H1323       H  0.21683677  0.03361148  0.93201442     0.43600
H1324       H  0.13670195  0.04611213  0.58161098     0.43500
C1325       C  0.21055066  0.13528161  0.50409747    -0.05500
C1326       C  0.22067128  0.16161017  0.02009042    -0.32900
C1327       C  0.20316887  0.18207485  0.02308347     0.36300
C1328       C  0.17486599  0.17618196  0.51149042    -0.05900
C1329       C  0.16628382  0.15093065  0.50441876    -0.32800
C1330       C  0.18390831  0.13061988  0.49991031     0.36200
H1331       H  0.24089319  0.16512028  0.02664290     0.16600
O1332       O  0.21181974  0.20610169  0.03420217    -0.60300
H1333       H  0.14584298  0.14693603  0.50199223     0.16600
O1334       O  0.17475867  0.10613046  0.49410770    -0.60400
H1335       H  0.17162119  0.10463451  0.46251244     0.43600
H1336       H  0.21764113  0.21407324  0.00659323     0.43500
C1337       C  0.27756855  0.08563920  0.58641169    -0.05500
C1338       C  0.27882394  0.06394293  0.61399636    -0.32900
C1339       C  0.29452508  0.06383319  0.65075044     0.36300
C1340       C  0.30924988  0.08571403  0.66106498    -0.05900
C1341       C  0.30858757  0.10709765  0.63322738    -0.32800
C1342       C  0.29355094  0.10695230  0.59582319     0.36200
H1343       H  0.26838095  0.04650142  0.60721522     0.16600
O1344       O  0.29491222  0.04233373  0.67673919    -0.60300
H1345       H  0.32036055  0.12386335  0.63975701     0.16600
O1346       O  0.29437289  0.12803067  0.56888158    -0.60400
H1347       H  0.30916317  0.12489188  0.54904257     0.43600
H1348       H  0.30719874  0.03033331  0.66248454     0.43500
C1349       C  0.27189200  0.08824216  0.92657649    -0.05500
C1350       C  0.27894940  0.06481654  0.90755814    -0.32900
C1351       C  0.29499138  0.06419458  0.87082608     0.36300
C1352       C  0.30462659  0.08737786  0.85268847    -0.05900
C1353       C  0.29643652  0.11090699  0.87089580    -0.32800
C1354       C  0.28039786  0.11140550  0.90770816     0.36200
H1355       H  0.27291389  0.04685585  0.92244689     0.16600
O1356       O  0.30211917  0.04070133  0.85445247    -0.60300
H1357       H  0.30334159  0.12901930  0.85777611     0.16600
O1358       O  0.27411566  0.13459121  0.92623476    -0.60400
H1359       H  0.28763626  0.13769916  0.94823810     0.43600
H1360       H  0.28854271  0.03629555  0.83320178     0.43500
C1361       C  0.60025014  0.09423294  0.83947815    -0.05500
C1362       C  0.58770929  0.11680988  0.85335891    -0.32900
C1363       C  0.56865980  0.11616683  0.88560174     0.36300
C1364       C  0.56181241  0.09260898  0.90553101    -0.05900
C1365       C  0.57357512  0.06984153  0.89048539    -0.32800
C1366       C  0.59257716  0.07048455  0.85786150     0.36200
H1367       H  0.59282530  0.13532518  0.83952121     0.16600
O1368       O  0.55724304  0.13889766  0.89772430    -0.60300
H1369       H  0.56836525  0.05139611  0.90448575     0.16600
O1370       O  0.60339054  0.04775117  0.84428999    -0.60400
H1371       H  0.61730279  0.04400097  0.86542357     0.43600
H1372       H  0.54219898  0.14090943  0.87817915     0.43500
C1373       C  0.56753411  0.09117859  0.59443443    -0.05500
C1374       C  0.57426141  0.06926560  0.61879407    -0.32900
C1375       C  0.59393818  0.07033198  0.64977105     0.36300
C1376       C  0.60743800  0.09355937  0.65656721    -0.05900
C1377       C  0.60116516  0.11518905  0.63133261    -0.32800
C1378       C  0.58162887  0.11412766  0.60040015     0.36200
H1379       H  0.56383575  0.05137740  0.61462897     0.16600
O1380       O  0.59926694  0.04874821  0.67391023    -0.60300
H1381       H  0.61143711  0.13316155  0.63559446     0.16600
O1382       O  0.57652296  0.13576683  0.57626997    -0.60400
H1383       H  0.58741510  0.13408241  0.54981546     0.43600
H1384       H  0.58791798  0.05000928  0.69988508     0.43500
C1385       C  0.81394190  0.07545599  0.49920058    -0.05500
C1386       C  0.82132159  0.06329675  0.53775588    -0.32900
C1387       C  0.84227851  0.04623083  0.53848030     0.36300
C1388       C  0.85666595  0.04138870  0.50014213    -0.05900
C1389       C  0.85091581  0.05535117  0.96707699    -0.32800
C1390       C  0.82958601  0.07185806  0.96653097     0.36200
H1391       H  0.81052416  0.06664921  0.56733438     0.16600
O1392       O  0.84824068  0.03423177  0.57685343    -0.60300
H1393       H  0.86205041  0.05292037  0.93752651     0.16600
O1394       O  0.82413191  0.08501140  0.92899922    -0.60400
H1395       H  0.83134217  0.10251167  0.93326687     0.43600
H1396       H  0.83732908  0.01855167  0.57767792     0.43500
C1397       C  0.73825178  0.11427459  0.92847532    -0.05500
C1398       C  0.73749047  0.13357313  0.89611917    -0.32900
C1399       C  0.72180554  0.13113395  0.85966781     0.36300
C1400       C  0.70635778  0.10917982  0.85451929    -0.05900
C1401       C  0.70631114  0.09020646  0.88694697    -0.32800
C1402       C  0.72183160  0.09269096  0.92375755     0.36200
H1403       H  0.74874987  0.15089582  0.89796650     0.16600
O1404       O  0.72257918  0.14992383  0.82827950    -0.60300
H1405       H  0.69393442  0.07349685  0.88405305     0.16600
O1406       O  0.72058140  0.07404143  0.95537755    -0.60400
H1407       H  0.72982003  0.05893698  0.94325351     0.43600
H1408       H  0.71111702  0.16383017  0.83911595     0.43500
C1409       C  0.74825560  0.11372636  0.58984275    -0.05500
C1410       C  0.73469323  0.13531250  0.60479983    -0.32900
C1411       C  0.71895114  0.13383494  0.64175460     0.36300
C1412       C  0.71595734  0.11013235  0.66409021    -0.05900
C1413       C  0.73104048  0.08898493  0.65063730    -0.32800
C1414       C  0.74723055  0.09074577  0.61398107     0.36200
H1415       H  0.73523980  0.15310163  0.58631439     0.16600
O1416       O  0.70515179  0.15527365  0.65359011    -0.60300
H1417       H  0.72949184  0.07067936  0.66738902     0.16600
O1418       O  0.76022424  0.06930889  0.59988972    -0.60400
H1419       H  0.77500988  0.06740105  0.61997048     0.43600
H1420       H  0.71668775  0.16493864  0.67325757     0.43500
C1421       C  0.40045325  0.87173317  0.83398231    -0.05500
C1422       C  0.41551403  0.85034826  0.84581508    -0.32900
C1423       C  0.43527613  0.85242207  0.87629069     0.36300
C1424       C  0.44037593  0.87625350  0.89654321    -0.05900
C1425       C  0.42562942  0.89784014  0.88425167    -0.32800
C1426       C  0.40583819  0.89575212  0.85342787     0.36200
H1427       H  0.41210517  0.83170851  0.83124872     0.16600
O1428       O  0.44931204  0.83077911  0.88612931    -0.60300
H1429       H  0.42915075  0.91640400  0.89900862     0.16600
O1430       O  0.39196122  0.91735310  0.84273475    -0.60400
H1431       H  0.37753143  0.91795163  0.86396990     0.43600
H1432       H  0.46376735  0.83060508  0.86489787     0.43500
C1433       C  0.39990114  0.86882479  0.65267725    -0.05500
C1434       C  0.40471192  0.89283526  0.63308185    -0.32900
C1435       C  0.42415104  0.89571122  0.60167881     0.36300
C1436       C  0.43902603  0.87423048  0.58867812    -0.05900
C1437       C  0.43461374  0.85041240  0.60905935    -0.32800
C1438       C  0.41544343  0.84758334  0.64071593     0.36200
H1439       H  0.39332871  0.90953990  0.64197035     0.16600
O1440       O  0.42797076  0.91952013  0.58338012    -0.60300
H1441       H  0.44613218  0.83372023  0.60058524     0.16600
O1442       O  0.41257264  0.82400005  0.66033158    -0.60400
H1443       H  0.40150170  0.81391508  0.64048141     0.43600
H1444       H  0.43999817  0.92848320  0.60319403     0.43500
C1445       C  0.18890976  0.88281057  0.49643507    -0.05500
C1446       C  0.18353917  0.89551452  0.53547562    -0.32900
C1447       C  0.16311365  0.91326022  0.53834343     0.36300
C1448       C  0.14732098  0.91821028  0.50187175    -0.05900
C1449       C  0.15035404  0.90507932  0.97296804    -0.32800
C1450       C  0.17043663  0.88725554  0.96994806     0.36200
H1451       H  0.19572260  0.89232808  0.56344351     0.16600
O1452       O  0.15928630  0.92611376  0.57663887    -0.60300
H1453       H  0.13789142  0.90777099  0.94518629     0.16600
O1454       O  0.17321513  0.87340189  0.93238269    -0.60400
H1455       H  0.16519807  0.85642610  0.93862899     0.43600
H1456       H  0.17025960  0.94169727  0.57450287     0.43500
C1457       C  0.14880878  0.76726924  0.50464078    -0.05500
C1458       C  0.17182400  0.76052805  0.99028266    -0.32900
C1459       C  0.19346116  0.77672095  0.98829005     0.36300
C1460       C  0.19214349  0.80029395  0.49979316    -0.05900
C1461       C  0.16886402  0.80865585  0.51868983    -0.32800
C1462       C  0.14747539  0.79226182  0.52185925     0.36200
H1463       H  0.17341764  0.74085898  0.97889515     0.16600
O1464       O  0.21642853  0.76695877  0.97319539    -0.60300
H1465       H  0.16693100  0.82806945  0.53091146     0.16600
O1466       O  0.12590201  0.80006857  0.54442605    -0.60400
H1467       H  0.12113299  0.81721452  0.53269396     0.43600
H1468       H  0.21369918  0.76356382  0.94184733     0.43500
C1469       C  0.26258957  0.84882043  0.91858462    -0.05500
C1470       C  0.26797256  0.82741539  0.89198718    -0.32900
C1471       C  0.28324113  0.82976776  0.85465287     0.36300
C1472       C  0.29389385  0.85379812  0.84301188    -0.05900
C1473       C  0.28931607  0.87502108  0.87001685    -0.32800
C1474       C  0.27430656  0.87263260  0.90775321     0.36200
H1475       H  0.26117722  0.80838483  0.90024200     0.16600
O1476       O  0.28798090  0.80819453  0.83028600    -0.60300
H1477       H  0.29808188  0.89347090  0.86267593     0.16600
O1478       O  0.27196301  0.89351007  0.93473779    -0.60400
H1479       H  0.26172888  0.90640610  0.91839846     0.43600
H1480       H  0.27370458  0.80751275  0.80899574     0.43500
C1481       C  0.25840524  0.84603219  0.57714004    -0.05500
C1482       C  0.27176075  0.82468522  0.59359652    -0.32900
C1483       C  0.28772084  0.82694581  0.63002220     0.36300
C1484       C  0.29093166  0.85110048  0.65051920    -0.05900
C1485       C  0.27670020  0.87227291  0.63465846    -0.32800
C1486       C  0.26070637  0.86987876  0.59820981     0.36200
H1487       H  0.27063469  0.80635959  0.57697881     0.16600
O1488       O  0.30121794  0.80567106  0.64353656    -0.60300
H1489       H  0.27863906  0.89102998  0.64955435     0.16600
O1490       O  0.24840006  0.89126025  0.58215734    -0.60400
H1491       H  0.26024558  0.89838229  0.55980448     0.43600
H1492       H  0.28946072  0.79659161  0.66390384     0.43500
C1493       C  0.58619241  0.88395271  0.65854201    -0.05500
C1494       C  0.57919626  0.90658135  0.63624145    -0.32900
C1495       C  0.56036944  0.90628992  0.60372902     0.36300
C1496       C  0.54784307  0.88308131  0.59290037    -0.05900
C1497       C  0.55451845  0.86053964  0.61571364    -0.32800
C1498       C  0.57328567  0.86083319  0.64828454     0.36200
H1499       H  0.58870233  0.92463623  0.64336833     0.16600
O1500       O  0.55471907  0.92881371  0.58242635    -0.60300
H1501       H  0.54510505  0.84245785  0.60841269     0.16600
O1502       O  0.57891037  0.83827445  0.66951760    -0.60400
H1503       H  0.56684592  0.83770718  0.69462195     0.43600
H1504       H  0.56679448  0.92939104  0.55737101     0.43500
C1505       C  0.59226984  0.88698694  0.84248596    -0.05500
C1506       C  0.57528216  0.90799218  0.84623786    -0.32900
C1507       C  0.55513542  0.90774477  0.87666402     0.36300
C1508       C  0.55160042  0.88614164  0.90388595    -0.05900
C1509       C  0.56902158  0.86546165  0.90086085    -0.32800
C1510       C  0.58928747  0.86582821  0.87082513     0.36200
H1511       H  0.57713294  0.92441743  0.82468302     0.16600
O1512       O  0.53829503  0.92814206  0.87789162    -0.60300
H1513       H  0.56702710  0.84887183  0.92202137     0.16600
O1514       O  0.60596907  0.84530356  0.86942389    -0.60400
H1515       H  0.61991975  0.84964593  0.89012251     0.43600
H1516       H  0.54683455  0.94126735  0.89617210     0.43500
C1517       C  0.80706566  0.90797705  0.48827056    -0.05500
C1518       C  0.82282989  0.91057974  0.03233511    -0.32900
C1519       C  0.84610096  0.92405927  0.03358989     0.36300
C1520       C  0.85373789  0.93605944  0.49022817    -0.05900
C1521       C  0.83845422  0.93564106  0.45249852    -0.32800
C1522       C  0.81525575  0.92172117  0.45138533     0.36200
H1523       H  0.81629488  0.90073164  0.06141755     0.16600
O1524       O  0.85981044  0.92433780  0.07153903    -0.60300
H1525       H  0.84383789  0.94708605  0.42444757     0.16600
O1526       O  0.80021082  0.92269711  0.41492354    -0.60400
H1527       H  0.78795543  0.93706080  0.41993855     0.43600
H1528       H  0.87193768  0.90959867  0.06933028     0.43500
C1529       C  0.69260376  0.88567015  0.64333295    -0.05500
C1530       C  0.68894602  0.86657860  0.61196872    -0.32900
C1531       C  0.70410328  0.86599389  0.57436512     0.36300
C1532       C  0.72427595  0.88402284  0.56827807    -0.05900
C1533       C  0.72715353  0.90370529  0.59938614    -0.32800
C1534       C  0.71160063  0.90453480  0.63652306     0.36200
H1535       H  0.67389409  0.85230004  0.61619186     0.16600
O1536       O  0.69936393  0.84731676  0.54403367    -0.60300
H1537       H  0.74106040  0.91893538  0.59553425     0.16600
O1538       O  0.71536196  0.92378474  0.66620232    -0.60400
H1539       H  0.72754144  0.91647539  0.68776523     0.43600
H1540       H  0.68512829  0.85421411  0.52602981     0.43500
C1541       C  0.73355864  0.88781105  0.90879111    -0.05500
C1542       C  0.72018774  0.91039430  0.89770973    -0.32900
C1543       C  0.70440968  0.91140296  0.86097231     0.36300
C1544       C  0.70133070  0.88932855  0.83477369    -0.05900
C1545       C  0.71604409  0.86722213  0.84452260    -0.32800
C1546       C  0.73208368  0.86640001  0.88113003     0.36200
H1547       H  0.72096233  0.92696160  0.91896765     0.16600
O1548       O  0.69049227  0.93342069  0.85323932    -0.60300
H1549       H  0.71430365  0.85010349  0.82476443     0.16600
O1550       O  0.74480112  0.84399443  0.89118608    -0.60400
H1551       H  0.73280426  0.83430920  0.91038692     0.43600
H1552       H  0.70199673  0.94443393  0.83533725     0.43500
C1553       C  0.89233599  0.43538230  0.59491776    -0.05500
C1554       C  0.91633485  0.42513796  0.60743700    -0.32900
C1555       C  0.91810753  0.40607905  0.63970058     0.36300
C1556       C  0.89559115  0.39676186  0.66054601    -0.05900
C1557       C  0.87159978  0.40686017  0.64775564    -0.32800
C1558       C  0.86980837  0.42577173  0.61533978     0.36200
H1559       H  0.93394082  0.43177110  0.59196615     0.16600
O1560       O  0.94196181  0.39624104  0.64956049    -0.60300
H1561       H  0.85395667  0.40009435  0.66293849     0.16600
O1562       O  0.84583987  0.43495373  0.60454713    -0.60400
H1563       H  0.83918897  0.42275308  0.58255926     0.43600
H1564       H  0.94938210  0.40840173  0.67085891     0.43500
C1565       C  0.89239988  0.39255061  0.84752789    -0.05500
C1566       C  0.91495972  0.40069345  0.86842201    -0.32900
C1567       C  0.91412474  0.41964490  0.90042643     0.36300
C1568       C  0.89033679  0.43095623  0.91239281    -0.05900
C1569       C  0.86765736  0.42237023  0.89227626    -0.32800
C1570       C  0.86849957  0.40334564  0.86025725     0.36200
H1571       H  0.93351571  0.39245515  0.85985079     0.16600
O1572       O  0.93672716  0.42658332  0.92020483    -0.60300
H1573       H  0.84913777  0.43069218  0.90083476     0.16600
O1574       O  0.84589280  0.39615880  0.84075478    -0.60400
H1575       H  0.83851680  0.38262037  0.85982980     0.43600
H1576       H  0.94493202  0.43915353  0.90025710     0.43500
C1577       C  0.96266245  0.13099395  0.50401309    -0.05500
C1578       C  0.97301291  0.15254854  0.52458169    -0.32900
C1579       C  0.96089317  0.17651937  0.52163457     0.36300
C1580       C  0.93682936  0.17901803  0.50022181    -0.05900
C1581       C  0.92725537  0.15746215  0.47776287    -0.32800
C1582       C  0.94007983  0.13367119  0.47935313     0.36200
H1583       H  0.99122771  0.15101489  0.54159743     0.16600
O1584       O  0.97333355  0.19742504  0.53873745    -0.60300
H1585       H  0.90954908  0.15861082  0.45952201     0.16600
O1586       O  0.92687356  0.11284674  0.96901941    -0.60400
H1587       H  0.91706532  0.10576474  0.99400810     0.43600
H1588       H  0.98203560  0.20585239  0.51374127     0.43500
C1589       C  0.85311426  0.19330024  0.50017454    -0.05500
C1590       C  0.85796683  0.16713333  0.50724873    -0.32900
C1591       C  0.83769717  0.14954099  0.51068895     0.36300
C1592       C  0.81196981  0.15809537  0.50701193    -0.05900
C1593       C  0.80712329  0.18450177  0.50074950    -0.32800
C1594       C  0.82749134  0.20209741  0.49778467     0.36200
H1595       H  0.87750327  0.16035118  0.51160092     0.16600
O1596       O  0.84341642  0.12392705  0.51542384    -0.60300
H1597       H  0.79087218  0.18899306  0.98063623     0.16600
O1598       O  0.82615853  0.22426523  0.97241851    -0.60400
H1599       H  0.82128968  0.23489739  0.99782979     0.43600
H1600       H  0.84812858  0.12172419  0.54632681     0.43500
C1601       C  0.90405186  0.25999345  0.57751095    -0.05500
C1602       C  0.92488913  0.26020677  0.60680633    -0.32900
C1603       C  0.92444712  0.27591994  0.64347490     0.36300
C1604       C  0.90312271  0.29202254  0.65132873    -0.05900
C1605       C  0.88315686  0.29317852  0.62090693    -0.32800
C1606       C  0.88367564  0.27774792  0.58396815     0.36200
H1607       H  0.94191918  0.24862871  0.60168802     0.16600
O1608       O  0.94492767  0.27521752  0.67149742    -0.60300
H1609       H  0.86714184  0.30637221  0.62544464     0.16600
O1610       O  0.86432675  0.28037057  0.55393419    -0.60400
H1611       H  0.84846153  0.27379496  0.56830192     0.43600
H1612       H  0.94024278  0.26212771  0.69365338     0.43500
C1613       C  0.90097573  0.28451263  0.84390628    -0.05500
C1614       C  0.92455707  0.27997268  0.86521902    -0.32900
C1615       C  0.92574986  0.26434379  0.90233749     0.36300
C1616       C  0.90335168  0.25228491  0.91835349    -0.05900
C1617       C  0.88012771  0.25530073  0.89579011    -0.32800
C1618       C  0.87872441  0.27139529  0.85908530     0.36200
H1619       H  0.94203298  0.28949652  0.85437474     0.16600
O1620       O  0.94882393  0.26143812  0.92349182    -0.60300
H1621       H  0.86267723  0.24636991  0.90815325     0.16600
O1622       O  0.85535065  0.27457724  0.83906183    -0.60400
H1623       H  0.84618115  0.28788508  0.85628243     0.43600
H1624       H  0.95035272  0.27678621  0.94233263     0.43500
C1625       C  0.88054331  0.58174674  0.84009058    -0.05500
C1626       C  0.85775947  0.57007181  0.85557072    -0.32900
C1627       C  0.85839675  0.55075169  0.88756143     0.36300
C1628       C  0.88221990  0.54225798  0.90470449    -0.05900
C1629       C  0.90496658  0.55408432  0.88949292    -0.32800
C1630       C  0.90431627  0.57354301  0.85778166     0.36200
H1631       H  0.83917648  0.57596063  0.84295812     0.16600
O1632       O  0.83551388  0.54023173  0.90140013    -0.60300
H1633       H  0.92353753  0.54835230  0.90235417     0.16600
O1634       O  0.92712864  0.58467452  0.84506578    -0.60400
H1635       H  0.93419393  0.57317343  0.82226333     0.43600
H1636       H  0.82932850  0.55174049  0.92490481     0.43500
C1637       C  0.88076456  0.58376486  0.65473460    -0.05500
C1638       C  0.90503250  0.57716692  0.63739574    -0.32900
C1639       C  0.90741132  0.55834230  0.60530753     0.36300
C1640       C  0.88524846  0.54550242  0.59003156    -0.05900
C1641       C  0.86102194  0.55216474  0.60731189    -0.32800
C1642       C  0.85864841  0.57092179  0.63939420     0.36200
H1643       H  0.92236804  0.58664198  0.64862260     0.16600
O1644       O  0.93155420  0.55255660  0.58961662    -0.60300
H1645       H  0.84367110  0.54265110  0.59625185     0.16600
O1646       O  0.83450849  0.57651660  0.65525418    -0.60400
H1647       H  0.83150686  0.56388053  0.67890932     0.43600
H1648       H  0.93471692  0.56516154  0.56597154     0.43500
C1649       C  0.78711566  0.82946216  0.48502361    -0.05500
C1650       C  0.81460129  0.83700182  0.99223021    -0.32900
C1651       C  0.83289663  0.81742740  0.99635831     0.36300
C1652       C  0.82485230  0.79028140  0.49172343    -0.05900
C1653       C  0.79867588  0.78454168  0.49837161    -0.32800
C1654       C  0.77984072  0.80394582  0.49532206     0.36200
H1655       H  0.82118370  0.85674380  0.99030727     0.16600
O1656       O  0.85847300  0.82390828  0.99613217    -0.60300
H1657       H  0.79287610  0.76500061  0.50601489     0.16600
O1658       O  0.75444979  0.79778800  0.50260652    -0.60400
H1659       H  0.74684287  0.79571708  0.47333331     0.43600
H1660       H  0.86223794  0.82939953  0.02622999     0.43500
C1661       C  0.93896449  0.84113965  0.50098941    -0.05500
C1662       C  0.93093814  0.82955590  0.54025397    -0.32900
C1663       C  0.91459805  0.80797533  0.54039969     0.36300
C1664       C  0.90635540  0.79743457  0.50088387    -0.05900
C1665       C  0.91335009  0.81140649  0.96277837    -0.32800
C1666       C  0.93023868  0.83227953  0.96299965     0.36200
H1667       H  0.93800828  0.83665299  0.57098292     0.16600
O1668       O  0.90817151  0.79649893  0.57907414    -0.60300
H1669       H  0.90446844  0.80618359  0.93230749     0.16600
O1670       O  0.93518096  0.84490547  0.92468889    -0.60400
H1671       H  0.94846064  0.83434162  0.90973037     0.43600
H1672       H  0.89505270  0.80797915  0.59240386     0.43500
C1673       C  0.87239856  0.68876744  0.84500959    -0.05500
C1674       C  0.85133541  0.68828381  0.87382164    -0.32900
C1675       C  0.85100633  0.70382895  0.91089027     0.36300
C1676       C  0.87164987  0.72089306  0.91927020    -0.05900
C1677       C  0.89280904  0.72085492  0.89022996    -0.32800
C1678       C  0.89320716  0.70525648  0.85361817     0.36200
H1679       H  0.83531494  0.67533643  0.86825707     0.16600
O1680       O  0.83025263  0.70234518  0.93861093    -0.60300
H1681       H  0.90982794  0.73222013  0.89517758     0.16600
O1682       O  0.91399687  0.70675400  0.82593333    -0.60400
H1683       H  0.92773731  0.69632256  0.83978608     0.43600
H1684       H  0.83386178  0.68738286  0.95769718     0.43500
C1685       C  0.86951948  0.72671363  0.58117601    -0.05500
C1686       C  0.84672925  0.71785462  0.60078666    -0.32900
C1687       C  0.84748682  0.70127798  0.63697359     0.36300
C1688       C  0.87144339  0.69292564  0.65410642    -0.05900
C1689       C  0.89422941  0.70279558  0.63521990    -0.32800
C1690       C  0.89336792  0.71937803  0.59912613     0.36200
H1691       H  0.82825085  0.72276261  0.58662663     0.16600
O1692       O  0.82461658  0.69236086  0.65374439    -0.60300
H1693       H  0.91291708  0.69686761  0.64732828     0.16600
O1694       O  0.91603097  0.72683180  0.57965466    -0.60400
H1695       H  0.91971385  0.74417539  0.59148341     0.43600
H1696       H  0.81950309  0.70516159  0.67593737     0.43500
loop_ 
_geom_bond_atom_site_label_1 
_geom_bond_atom_site_label_2 
_geom_bond_distance 
_geom_bond_site_symmetry_2 
_ccdc_geom_bond_type 
C1            C2   1.538       .  S
C1            C7   1.527       .  S
C1            C5   1.538       .  S
C1          C828   1.528       .  S
C2            H9   1.087       .  S
C2          C851   1.362       .  D
C3            C4   1.546   1_556  S
C3          C850   1.365       .  D
C3          C804   1.483       .  S
C4            C8   1.550       .  S
C4            C6   1.542   1_554  S
C4           H10   1.109       .  S
C5           H11   1.079       .  S
C5          C854   1.364       .  D
C6          C853   1.361       .  D
C6          C816   1.489   1_556  S
C7          H860   1.087       .  S
C7          C856   1.363       .  D
C8          C855   1.364       .  D
C8          C837   1.483       .  S
H12         C855   1.087       .  S
O13         Ni21   1.925       .  S
O13          C23   1.283       .  A
O14         Ni21   1.924       .  S
O14          C24   1.282       .  A
O15         Ni21   1.912       .  S
O15          C25   1.281       .  A
O16         Ni21   1.908       .  S
O16          C26   1.280       .  A
O17         Ni22   1.906       .  S
O17          C26   1.279       .  A
O18         Ni22   1.909       .  S
O18          C25   1.279       .  A
O19         Ni22   1.927       .  S
O19          C24   1.284       .  A
O20         Ni22   1.928       .  S
O20          C23   1.284       .  A
Ni21        Ni22   2.383       .  S
C23         C840   1.497       .  S
C24         C777   1.496       .  S
C25         C789   1.481       .  S
C26         C825   1.475       .  S
C27          C28   1.534       .  S
C27          C33   1.529   1_554  S
C27          C31   1.540       .  S
C27         C753   1.525       .  S
C28          H35   1.087       .  S
C28          C29   1.358       .  D
C29         C878   1.539   1_554  S
C29         C741   1.471       .  S
C30          C34   1.544       .  S
C30         C877   1.544       .  S
C30         C880   1.551       .  S
C30          H36   1.108       .  S
C31          H37   1.080       .  S
C31          C32   1.371       .  D
C32         C878   1.546   1_554  S
C32         C732   1.492   1_554  S
C33          H38   1.087       .  S
C33         C882   1.361       .  D
C34         C881   1.361       .  D
C34         C768   1.480       .  S
O39         Ni47   1.928       .  S
O39          C49   1.284       .  A
O40         Ni47   1.926       .  S
O40          C50   1.284       .  A
O41         Ni47   1.909       .  S
O41          C51   1.279       .  A
O42         Ni47   1.908       .  S
O42          C52   1.281       .  A
O43         Ni48   1.911       .  S
O43          C52   1.280       .  A
O44         Ni48   1.907       .  S
O44          C51   1.280       .  A
O45         Ni48   1.921       .  S
O45          C50   1.282       .  A
O46         Ni48   1.919       .  S
O46          C49   1.283       .  A
Ni47        Ni48   2.384       .  S
C49         C708   1.495       .  S
C50         C765   1.495       .  S
C51         C756   1.471       .  S
C52         C717   1.479       .  S
O53         Ni61   1.924       .  S
O53          C63   1.283       .  A
O54        Ni909   1.921       .  S
O54          C64   1.282       .  A
O55        Ni909   1.912       .  S
O55          C65   1.281       .  A
O56         Ni61   1.914       .  S
O56          C66   1.282       .  A
O57         Ni62   1.905   1_554  S
O57          C66   1.279       .  A
O58        Ni910   1.906       .  S
O58          C65   1.279       .  A
O59        Ni910   1.929       .  S
O59          C64   1.284       .  A
O60         Ni62   1.926   1_554  S
O60          C63   1.283       .  A
Ni61        O902   1.925   1_554  S
Ni61        O903   1.918   1_554  S
Ni61        Ni62   2.382   1_554  S
Ni62        O906   1.907       .  S
Ni62        O907   1.925       .  S
C63         C705   1.496       .  S
C64         C780   1.496       .  S
C65         C720   1.480       .  S
C66         C792   1.481       .  S
C67          C68   1.538       .  S
C67          C73   1.526   1_554  S
C67          C71   1.540       .  S
C67         C684   1.524       .  S
C68          H75   1.087       .  S
C68          C69   1.362   1_554  D
C69         C918   1.542       .  S
C69         C801   1.479       .  S
C70          C74   1.548       .  S
C70         C917   1.546       .  S
C70         C920   1.541       .  S
C70          H76   1.110       .  S
C71          H77   1.081       .  S
C71          C72   1.365   1_554  D
C72         C918   1.541       .  S
C72         C669   1.483       .  S
C73          H78   1.087       .  S
C73         C922   1.362       .  D
C74         C921   1.363       .  D
C74         C693   1.487       .  S
O79         Ni87   1.918       .  S
O79          C89   1.281       .  A
O80         Ni87   1.919       .  S
O80          C90   1.282       .  A
O81         Ni87   1.920       .  S
O81          C91   1.283       .  A
O82         Ni87   1.915       .  S
O82          C92   1.281       .  A
O83         Ni88   1.901       .  S
O83          C92   1.278       .  A
O84         Ni88   1.906       .  S
O84          C91   1.279       .  A
O85         Ni88   1.924       .  S
O85          C90   1.283       .  A
O86         Ni88   1.927       .  S
O86          C89   1.284       .  A
Ni87        Ni88   2.385       .  S
C89         C696   1.490       .  S
C90         C645   1.489       .  S
C91         C657   1.484       .  S
C92         C681   1.467       .  S
C93          C94   1.544       .  S
C93          C99   1.528       .  S
C93          C97   1.535       .  S
C93         C621   1.528       .  S
C94         H101   1.079       .  S
C94         C943   1.371       .  D
C95          C96   1.547   1_556  S
C95         C942   1.370       .  D
C95         C612   1.494   1_556  S
C96         C100   1.543       .  S
C96          C98   1.540   1_554  S
C96         H102   1.110       .  S
C97         H103   1.086       .  S
C97         C946   1.365       .  D
C98         C945   1.365       .  D
C98         C597   1.483   1_556  S
C99         H952   1.087       .  S
C99         C948   1.358       .  D
C100        C947   1.362       .  D
C100        C633   1.483       .  S
H104        C947   1.087       .  S
O105       Ni113   1.925       .  S
O105        C115   1.283       .  A
O106       Ni113   1.922       .  S
O106        C116   1.282       .  A
O107       Ni113   1.917       .  S
O107        C117   1.282       .  A
O108       Ni113   1.914       .  S
O108        C118   1.281       .  A
O109       Ni114   1.909       .  S
O109        C118   1.279       .  A
O110       Ni114   1.910       .  S
O110        C117   1.280       .  A
O111       Ni114   1.928       .  S
O111        C116   1.285       .  A
O112       Ni114   1.928       .  S
O112        C115   1.283       .  A
Ni113      Ni114   2.383       .  S
C115        C636   1.497       .  S
C116        C573   1.497       .  S
C117        C585   1.482       .  S
C118        C624   1.475       .  S
O119       Ni975   1.917       .  S
O119        C129   1.281       .  A
O120       Ni127   1.912   1_554  S
O120        C130   1.280       .  A
O121       Ni127   1.909   1_554  S
O121        C131   1.281       .  A
O122       Ni975   1.913       .  S
O122        C132   1.282       .  A
O123       Ni976   1.914       .  S
O123        C132   1.280       .  A
O124       Ni128   1.918   1_554  S
O124        C131   1.281       .  A
O125       Ni128   1.928   1_554  S
O125        C130   1.284       .  A
O126       Ni976   1.932       .  S
O126        C129   1.285       .  A
Ni127       O967   1.912       .  S
Ni127       O970   1.910       .  S
Ni127      Ni128   2.384       .  S
Ni128       O971   1.917       .  S
Ni128       O974   1.930       .  S
C129        C576   1.496       .  S
C130        C648   1.488       .  S
C131        C588   1.483       .  S
C132        C660   1.483       .  S
C133        C134   1.542       .  S
C133        C139   1.528       .  S
C133        C137   1.534       .  S
C133        C549   1.527       .  S
C134        H141   1.080       .  S
C134        C983   1.365       .  D
C135        C136   1.545       .  S
C135        C982   1.368   1_554  D
C135        C744   1.494       .  S
C136        C140   1.546       .  S
C136        C138   1.542       .  S
C136        H142   1.108       .  S
C137        H143   1.086       .  S
C137        C986   1.363       .  D
C138        C985   1.365   1_554  D
C138        C537   1.485       .  S
C139        H992   1.087       .  S
C139        C988   1.363       .  D
C140        C987   1.361       .  D
C140        C561   1.483       .  S
H144        C987   1.087       .  S
O145       Ni153   1.925       .  S
O145        C155   1.284       .  A
O146       Ni153   1.922       .  S
O146        C156   1.282       .  A
O147       Ni153   1.919       .  S
O147        C157   1.281       .  A
O148       Ni153   1.914       .  S
O148        C158   1.281       .  A
O149       Ni154   1.905       .  S
O149        C158   1.278       .  A
O150       Ni154   1.907       .  S
O150        C157   1.281       .  A
O151       Ni154   1.923       .  S
O151        C156   1.284       .  A
O152       Ni154   1.926       .  S
O152        C155   1.283       .  A
Ni153      Ni154   2.384       .  S
C155        C564   1.496       .  S
C156        C513   1.493       .  S
C157        C528   1.481       .  S
C158        C552   1.472       .  S
C159        C160   1.534       .  S
C159        C165   1.528       .  S
C159        C163   1.539       .  S
C159        C489   1.524       .  S
C160        H167   1.087       .  S
C160        C161   1.363       .  D
C161       C1010   1.541   1_554  S
C161        C477   1.480       .  S
C162        C166   1.549       .  S
C162       C1009   1.543       .  S
C162       C1012   1.544       .  S
C162        H168   1.110       .  S
C163        H169   1.081       .  S
C163        C164   1.366       .  D
C164       C1010   1.542   1_554  S
C164        C465   1.484       .  S
C165        H170   1.087       .  S
C165       C1014   1.361   1_554  D
C166       C1013   1.361       .  D
C166        C501   1.480       .  S
O171       Ni179   1.925       .  S
O171        C181   1.284       .  A
O172       Ni179   1.925       .  S
O172        C182   1.283       .  A
O173       Ni179   1.908       .  S
O173        C183   1.279       .  A
O174       Ni179   1.908       .  S
O174        C184   1.280       .  A
O175       Ni180   1.906       .  S
O175        C184   1.279       .  A
O176       Ni180   1.906       .  S
O176        C183   1.280       .  A
O177       Ni180   1.923       .  S
O177        C182   1.283       .  A
O178       Ni180   1.918       .  S
O178        C181   1.282       .  A
Ni179      Ni180   2.384       .  S
C181        C444   1.492       .  S
C182        C504   1.496       .  S
C183        C492   1.469       .  S
C184        C453   1.477       .  S
O185      Ni1041   1.912       .  S
O185        C195   1.280       .  A
O186       Ni193   1.918       .  S
O186        C196   1.282       .  A
O187       Ni193   1.906       .  S
O187        C197   1.279       .  A
O188      Ni1041   1.905       .  S
O188        C198   1.280       .  A
O189      Ni1042   1.911       .  S
O189        C198   1.280       .  A
O190       Ni194   1.923       .  S
O190        C197   1.282       .  A
O191       Ni194   1.922       .  S
O191        C196   1.282       .  A
O192      Ni1042   1.931       .  S
O192        C195   1.285       .  A
Ni193      O1033   1.917   1_554  S
Ni193      O1036   1.906   1_554  S
Ni193      Ni194   2.383       .  S
Ni194      O1037   1.919   1_554  S
Ni194      O1040   1.921   1_554  S
C195        C516   1.493       .  S
C196        C441   1.491       .  S
C197        C525   1.481       .  S
C198        C456   1.477       .  S
C199        C200   1.534       .  S
C199        C205   1.530       .  S
C199        C203   1.539       .  S
C199        C417   1.526       .  S
C200        H207   1.086       .  S
C200        C201   1.359       .  D
C201       C1050   1.540   1_554  S
C201        C609   1.474       .  S
C202        C206   1.546       .  S
C202       C1049   1.542       .  S
C202       C1052   1.546       .  S
C202        H208   1.110       .  S
C203        H209   1.079       .  S
C203        C204   1.372       .  D
C204       C1050   1.546   1_554  S
C204        C405   1.491       .  S
C205        H210   1.087       .  S
C205       C1054   1.361   1_554  D
C206       C1053   1.360       .  D
C206        C432   1.485       .  S
O211       Ni219   1.925       .  S
O211        C221   1.283       .  A
O212       Ni219   1.927       .  S
O212        C222   1.284       .  A
O213       Ni219   1.918       .  S
O213        C223   1.282       .  A
O214       Ni219   1.921       .  S
O214        C224   1.282       .  A
O215       Ni220   1.900       .  S
O215        C224   1.279       .  A
O216       Ni220   1.902       .  S
O216        C223   1.279       .  A
O217       Ni220   1.919       .  S
O217        C222   1.282       .  A
O218       Ni220   1.921       .  S
O218        C221   1.282       .  A
Ni219      Ni220   2.385       .  S
C221        C429   1.489       .  S
C222        C384   1.493       .  S
C223        C396   1.482       .  S
C224        C420   1.473       .  S
C225        C226   1.537       .  S
C225        C231   1.533       .  S
C225        C229   1.533       .  S
C225        C360   1.523       .  S
C226        H233   1.086       .  S
C226       C1075   1.364       .  D
C227        C228   1.537       .  S
C227       C1074   1.362   1_554  D
C227        C480   1.471       .  S
C228        C232   1.540       .  S
C228        C230   1.537       .  S
C228        H234   1.111       .  S
C229        H235   1.086       .  S
C229       C1078   1.363       .  D
C230       C1077   1.362   1_554  D
C230        C345   1.479       .  S
C231       H1084   1.081       .  S
C231       C1080   1.362       .  D
C232       C1079   1.363       .  D
C232        C369   1.474       .  S
H236       C1079   1.082       .  S
O237       Ni245   1.919       .  S
O237        C247   1.282       .  A
O238       Ni245   1.919       .  S
O238        C248   1.282       .  A
O239       Ni245   1.912       .  S
O239        C249   1.280       .  A
O240       Ni245   1.908       .  S
O240        C250   1.278       .  A
O241       Ni246   1.901       .  S
O241        C250   1.277       .  A
O242       Ni246   1.906       .  S
O242        C249   1.280       .  A
O243       Ni246   1.922       .  S
O243        C248   1.283       .  A
O244       Ni246   1.919       .  S
O244        C247   1.282       .  A
Ni245      Ni246   2.388       .  S
C247        C372   1.487       .  S
C248        C321   1.490       .  S
C249        C336   1.478       .  S
C250        C357   1.450       .  S
O251       Ni259   1.920       .  S
O251        C261   1.283       .  A
O252      Ni1107   1.922       .  S
O252        C262   1.283       .  A
O253      Ni1107   1.906       .  S
O253        C263   1.281       .  A
O254       Ni259   1.905       .  S
O254        C264   1.279       .  A
O255       Ni260   1.911       .  S
O255        C264   1.281       .  A
O256      Ni1108   1.913       .  S
O256        C263   1.280       .  A
O257      Ni1108   1.920       .  S
O257        C262   1.282       .  A
O258       Ni260   1.926       .  S
O258        C261   1.283       .  A
Ni259      O1100   1.919   1_554  S
Ni259      O1101   1.903   1_554  S
Ni259      Ni260   2.384       .  S
Ni260      O1104   1.908   1_554  S
Ni260      O1105   1.923   1_554  S
C261        C381   1.493       .  S
C262        C324   1.491       .  S
C263        C393   1.481       .  S
C264        C333   1.479       .  S
O265       Ni273   1.925   1_545  S
O265       C1123   1.284       .  A
O266       Ni273   1.923       .  S
O266       C1124   1.284       .  A
O267       Ni273   1.914       .  S
O267       C1125   1.280       .  A
O268       Ni273   1.917       .  S
O268       C1126   1.280   1_565  A
O269       Ni274   1.921   1_545  S
O269        C278   1.284       .  A
O270       Ni274   1.924       .  S
O270        C277   1.283       .  A
O271       Ni274   1.919       .  S
O271        C276   1.280       .  A
O272       Ni274   1.918   1_545  S
O272        C275   1.280       .  A
Ni273     Ni1122   2.387       .  S
Ni274     Ni1121   2.388   1_554  S
C275       O1113   1.282   1_554  A
C275        C289   1.469       .  S
C276       O1114   1.284   1_554  A
C276        C600   1.485       .  S
C277       O1115   1.279   1_554  A
C277        C303   1.466       .  S
C278       O1116   1.279   1_554  A
C278        C468   1.485       .  S
O279       Ni287   1.923       .  S
O279        C289   1.283       .  A
O280       Ni287   1.920   1_655  S
O280        C290   1.282       .  A
O281       Ni287   1.913   1_655  S
O281        C291   1.279       .  A
O282       Ni287   1.905       .  S
O282        C292   1.278       .  A
O283       Ni288   1.921       .  S
O283       C1140   1.284       .  A
O284       Ni288   1.919   1_655  S
O284       C1139   1.282       .  A
O285       Ni288   1.909   1_655  S
O285       C1138   1.278       .  A
O286       Ni288   1.916       .  S
O286       C1137   1.280       .  A
Ni287     Ni1136   2.390   1_554  S
Ni288     Ni1135   2.389       .  S
C289       O1134   1.280   1_554  A
C290       O1133   1.278   1_554  A
C290        C729   1.465       .  S
C291       O1132   1.283   1_554  A
C291        C319   1.467       .  S
C292       O1131   1.284   1_554  A
C292        C348   1.482       .  S
O293       Ni301   1.916   1_455  S
O293       C1151   1.281       .  A
O294       Ni301   1.915       .  S
O294       C1152   1.283       .  A
O295       Ni301   1.914       .  S
O295       C1153   1.279       .  A
O296       Ni301   1.913   1_455  S
O296       C1154   1.279       .  A
O297       Ni302   1.914   1_455  S
O297        C306   1.281       .  A
O298       Ni302   1.918       .  S
O298        C305   1.283       .  A
O299       Ni302   1.911       .  S
O299        C304   1.280       .  A
O300       Ni302   1.917   1_455  S
O300        C303   1.280       .  A
Ni301     Ni1150   2.390       .  S
Ni302     Ni1149   2.390   1_554  S
C303       O1141   1.282   1_554  A
C304       O1142   1.284   1_554  A
C304        C813   1.485       .  S
C305       O1143   1.279   1_554  A
C305        C317   1.465       .  S
C306       O1144   1.278   1_554  A
C306        C408   1.463       .  S
O307       Ni315   1.925       .  S
O307       C1165   1.283       .  A
O308       Ni315   1.927   1_545  S
O308       C1166   1.285       .  A
O309       Ni315   1.913   1_545  S
O309       C1167   1.279       .  A
O310       Ni315   1.914       .  S
O310       C1168   1.280       .  A
O311       Ni316   1.921       .  S
O311        C320   1.284   1_554  A
O312       Ni316   1.922   1_545  S
O312        C319   1.283       .  A
O313       Ni316   1.907   1_545  S
O313        C318   1.278       .  A
O314       Ni316   1.904       .  S
O314        C317   1.277       .  A
Ni315     Ni1164   2.388       .  S
Ni316     Ni1163   2.388   1_554  S
C317       O1155   1.284   1_554  A
C318       O1156   1.286   1_554  A
C318        C540   1.488       .  S
C319       O1157   1.279   1_554  A
C320       O1158   1.279       .  A
C320        C672   1.484       .  S
C321        C322   1.406       .  A
C321        C326   1.412       .  A
C322        C323   1.401       .  A
C322        H327   1.083       .  S
C323        C324   1.413       .  A
C323        O328   1.371       .  S
C324        C325   1.407       .  A
C325        C326   1.402       .  A
C325        H329   1.083       .  S
C326        O330   1.371       .  S
O328        H332   0.992       .  S
O330        H331   0.992       .  S
C333        C334   1.405       .  A
C333        C338   1.411       .  A
C334        C335   1.397       .  A
C334        H339   1.083       .  S
C335        C336   1.411       .  A
C335        O340   1.371       .  S
C336        C337   1.404       .  A
C337        C338   1.395       .  A
C337        H341   1.083       .  S
C338        O342   1.372       .  S
O340        H344   0.993       .  S
O342        H343   0.992       .  S
C345        C346   1.398       .  A
C345       C1198   1.411   1_554  A
C346        C347   1.399       .  A
C346        H351   1.084       .  S
C347        C348   1.416       .  A
C347        O352   1.372       .  S
C348       C1197   1.403   1_554  A
C349        C350   1.395       .  A
C349       C1196   1.403       .  A
C349        H353   1.083       .  S
C350       C1193   1.412       .  A
C350        O354   1.372       .  S
O352        H356   0.990       .  S
O354        H355   0.991       .  S
C357        C358   1.393       .  A
C357        C362   1.399       .  A
C358        C359   1.395       .  A
C358        H363   1.084       .  S
C359        C360   1.418       .  A
C359        O364   1.373       .  S
C360        C361   1.412       .  A
C361        C362   1.394       .  A
C361        H365   1.076       .  S
C362        O366   1.373       .  S
O364        H368   0.992       .  S
O366        H367   0.992       .  S
C369        C370   1.399       .  A
C369        C374   1.405       .  A
C370        C371   1.403       .  A
C370        H375   1.084       .  S
C371        C372   1.415       .  A
C371        O376   1.372       .  S
C372        C373   1.407       .  A
C373        C374   1.398       .  A
C373        H377   1.083       .  S
C374        O378   1.372       .  S
O376        H380   0.993       .  S
O378        H379   0.991       .  S
C381        C382   1.406       .  A
C381        C386   1.413       .  A
C382        C383   1.401       .  A
C382        H387   1.083       .  S
C383        C384   1.413       .  A
C383        O388   1.372       .  S
C384        C385   1.407       .  A
C385        C386   1.405       .  A
C385        H389   1.083       .  S
C386        O390   1.371       .  S
O388        H392   0.992       .  S
O390        H391   0.991       .  S
C393        C394   1.403       .  A
C393        C398   1.412       .  A
C394        C395   1.393       .  A
C394        H399   1.083       .  S
C395        C396   1.412       .  A
C395        O400   1.372       .  S
C396        C397   1.406       .  A
C397        C398   1.400       .  A
C397        H401   1.083       .  S
C398        O402   1.371       .  S
O400        H404   0.993       .  S
O402        H403   0.993       .  S
C405        C406   1.409   1_554  A
C405       C1258   1.413       .  A
C406        C407   1.400       .  A
C406        H411   1.081       .  S
C407        C408   1.403   1_556  A
C407        O412   1.372       .  S
C408       C1257   1.398       .  A
C409        C410   1.398       .  A
C409       C1256   1.399       .  A
C409        H413   1.084       .  S
C410       C1253   1.413       .  A
C410        O414   1.374       .  S
O412        H416   0.992       .  S
O414        H415   0.992       .  S
C417        C418   1.413       .  A
C417        C422   1.414       .  A
C418        C419   1.401       .  A
C418        H423   1.077       .  S
C419        C420   1.405       .  A
C419        O424   1.372       .  S
C420        C421   1.400       .  A
C421        C422   1.393       .  A
C421        H425   1.084       .  S
C422        O426   1.373       .  S
O424        H428   0.992       .  S
O426        H427   0.991       .  S
C429        C430   1.406       .  A
C429        C434   1.414       .  A
C430        C431   1.401       .  A
C430        H435   1.084       .  S
C431        C432   1.411       .  A
C431        O436   1.372       .  S
C432        C433   1.400       .  A
C433        C434   1.405       .  A
C433        H437   1.084       .  S
C434        O438   1.371       .  S
O436        H440   0.991       .  S
O438        H439   0.993       .  S
C441        C442   1.406       .  A
C441        C446   1.413       .  A
C442        C443   1.400       .  A
C442        H447   1.083       .  S
C443        C444   1.414       .  A
C443        O448   1.371       .  S
C444        C445   1.407       .  A
C445        C446   1.403       .  A
C445        H449   1.083       .  S
C446        O450   1.371       .  S
O448        H452   0.992       .  S
O450        H451   0.992       .  S
C453        C454   1.405       .  A
C453        C458   1.411       .  A
C454        C455   1.396       .  A
C454        H459   1.083       .  S
C455        C456   1.410       .  A
C455        O460   1.372       .  S
C456        C457   1.404       .  A
C457        C458   1.395       .  A
C457        H461   1.083       .  S
C458        O462   1.372       .  S
O460        H464   0.993       .  S
O462        H463   0.992       .  S
C465        C466   1.405       .  A
C465       C1318   1.405   1_554  A
C466        C467   1.394       .  A
C466        H471   1.084       .  S
C467        C468   1.409       .  A
C467        O472   1.371       .  S
C468       C1317   1.411   1_554  A
C469        C470   1.406       .  A
C469       C1316   1.411       .  A
C469        H473   1.083       .  S
C470       C1313   1.407       .  A
C470        O474   1.371       .  S
O472        H476   0.992       .  S
O474        H475   0.990       .  S
C477        C482   1.409       .  A
C477       C1326   1.407       .  A
C478        C479   1.401       .  A
C478       C1325   1.406       .  A
C478        H483   1.084       .  S
C479       C1328   1.405       .  A
C479        O484   1.371       .  S
C480        C481   1.400       .  A
C480       C1327   1.403       .  A
C481        C482   1.397       .  A
C481        H485   1.082   1_554  S
C482        O486   1.371   1_554  S
O484        H488   0.991       .  S
O486        H487   0.992       .  S
C489        C490   1.411       .  A
C489        C494   1.415       .  A
C490        C491   1.396       .  A
C490        H495   1.076       .  S
C491        C492   1.405       .  A
C491        O496   1.372       .  S
C492        C493   1.400       .  A
C493        C494   1.394       .  A
C493        H497   1.084       .  S
C494        O498   1.373       .  S
O496        H500   0.992       .  S
O498        H499   0.991       .  S
C501        C502   1.401       .  A
C501        C506   1.404       .  A
C502        C503   1.404       .  A
C502        H507   1.084       .  S
C503        C504   1.416       .  A
C503        O508   1.371       .  S
C504        C505   1.410       .  A
C505        C506   1.403       .  A
C505        H509   1.083       .  S
C506        O510   1.372       .  S
O508        H512   0.990       .  S
O510        H511   0.991       .  S
C513        C514   1.405       .  A
C513        C518   1.415       .  A
C514        C515   1.400       .  A
C514        H519   1.083       .  S
C515        C516   1.415       .  A
C515        O520   1.372       .  S
C516        C517   1.406       .  A
C517        C518   1.405       .  A
C517        H521   1.083       .  S
C518        O522   1.371       .  S
O520        H524   0.992       .  S
O522        H523   0.992       .  S
C525        C526   1.406       .  A
C525        C530   1.411       .  A
C526        C527   1.403       .  A
C526        H531   1.083       .  S
C527        C528   1.412       .  A
C527        O532   1.371       .  S
C528        C529   1.403       .  A
C529        C530   1.394       .  A
C529        H533   1.084       .  S
C530        O534   1.372       .  S
O532        H536   0.993       .  S
O534        H535   0.993       .  S
C537        C538   1.399       .  A
C537       C1390   1.413   1_554  A
C538        C539   1.403       .  A
C538        H543   1.083       .  S
C539        C540   1.418       .  A
C539        O544   1.372       .  S
C540       C1389   1.403   1_554  A
C541        C542   1.398       .  A
C541       C1388   1.403       .  A
C541        H545   1.083       .  S
C542       C1385   1.413       .  A
C542        O546   1.372       .  S
O544        H548   0.992       .  S
O546        H547   0.992       .  S
C549        C550   1.411       .  A
C549        C554   1.415       .  A
C550        C551   1.396       .  A
C550        H555   1.075       .  S
C551        C552   1.405       .  A
C551        O556   1.372       .  S
C552        C553   1.400       .  A
C553        C554   1.397       .  A
C553        H557   1.084       .  S
C554        O558   1.373       .  S
O556        H560   0.992       .  S
O558        H559   0.991       .  S
C561        C562   1.402       .  A
C561        C566   1.404       .  A
C562        C563   1.406       .  A
C562        H567   1.084       .  S
C563        C564   1.416       .  A
C563        O568   1.371       .  S
C564        C565   1.409       .  A
C565        C566   1.402       .  A
C565        H569   1.083       .  S
C566        O570   1.371       .  S
O568        H572   0.991       .  S
O570        H571   0.991       .  S
C573        C574   1.406       .  A
C573        C578   1.416       .  A
C574        C575   1.402       .  A
C574        H579   1.083       .  S
C575        C576   1.415       .  A
C575        O580   1.371       .  S
C576        C577   1.407       .  A
C577        C578   1.406       .  A
C577        H581   1.083       .  S
C578        O582   1.371       .  S
O580        H584   0.992       .  S
O582        H583   0.991       .  S
C585        C586   1.406       .  A
C585        C590   1.411       .  A
C586        C587   1.400       .  A
C586        H591   1.083       .  S
C587        C588   1.412       .  A
C587        O592   1.372       .  S
C588        C589   1.405       .  A
C589        C590   1.396       .  A
C589        H593   1.083       .  S
C590        O594   1.372       .  S
O592        H596   0.992       .  S
O594        H595   0.992       .  S
C597        C598   1.401       .  A
C597       C1450   1.410   1_554  A
C598        C599   1.406       .  A
C598        H603   1.084       .  S
C599        C600   1.416       .  A
C599        O604   1.371       .  S
C600       C1449   1.403   1_554  A
C601        C602   1.398       .  A
C601       C1448   1.404       .  A
C601        H605   1.083       .  S
C602       C1445   1.412       .  A
C602        O606   1.372       .  S
O604        H608   0.992       .  S
O606        H607   0.993       .  S
C609        C614   1.405       .  A
C609       C1458   1.398   1_554  A
C610        C611   1.404       .  A
C610       C1457   1.399       .  A
C610        H615   1.084       .  S
C611       C1460   1.417       .  A
C611        O616   1.372       .  S
C612        C613   1.406       .  A
C612       C1459   1.415   1_554  A
C613        C614   1.401       .  A
C613        H617   1.082       .  S
C614        O618   1.375       .  S
O616        H620   0.994       .  S
O618        H619   0.992       .  S
C621        C622   1.411       .  A
C621        C626   1.416       .  A
C622        C623   1.398       .  A
C622        H627   1.077       .  S
C623        C624   1.407       .  A
C623        O628   1.372       .  S
C624        C625   1.400       .  A
C625        C626   1.397       .  A
C625        H629   1.084       .  S
C626        O630   1.373       .  S
O628        H632   0.992       .  S
O630        H631   0.992       .  S
C633        C634   1.402       .  A
C633        C638   1.404       .  A
C634        C635   1.407       .  A
C634        H639   1.084       .  S
C635        C636   1.417       .  A
C635        O640   1.371       .  S
C636        C637   1.409       .  A
C637        C638   1.402       .  A
C637        H641   1.083       .  S
C638        O642   1.372       .  S
O640        H644   0.991       .  S
O642        H643   0.992       .  S
C645        C646   1.408       .  A
C645        C650   1.411       .  A
C646        C647   1.402       .  A
C646        H651   1.083       .  S
C647        C648   1.410       .  A
C647        O652   1.371       .  S
C648        C649   1.407       .  A
C649        C650   1.401       .  A
C649        H653   1.083       .  S
C650        O654   1.371       .  S
O652        H656   0.992       .  S
O654        H655   0.992       .  S
C657        C658   1.405       .  A
C657        C662   1.413       .  A
C658        C659   1.400       .  A
C658        H663   1.083       .  S
C659        C660   1.413       .  A
C659        O664   1.372       .  S
C660        C661   1.404       .  A
C661        C662   1.396       .  A
C661        H665   1.083       .  S
C662        O666   1.372       .  S
O664        H668   0.990       .  S
O666        H667   0.993       .  S
C669        C674   1.405       .  A
C669       C1518   1.405   1_556  A
C670        C671   1.397       .  A
C670       C1517   1.405       .  A
C670        H675   1.084       .  S
C671       C1520   1.409       .  A
C671        O676   1.372       .  S
C672        C673   1.410       .  A
C672       C1519   1.409   1_556  A
C673        C674   1.402       .  A
C673        H677   1.083       .  S
C674        O678   1.372       .  S
O676        H680   0.992       .  S
O678        H679   0.990       .  S
C681        C682   1.400       .  A
C681        C686   1.403       .  A
C682        C683   1.393       .  A
C682        H687   1.084       .  S
C683        C684   1.414       .  A
C683        O688   1.373       .  S
C684        C685   1.412       .  A
C685        C686   1.397       .  A
C685        H689   1.077       .  S
C686        O690   1.372       .  S
O688        H692   0.991       .  S
O690        H691   0.993       .  S
C693        C694   1.404       .  A
C693        C698   1.407       .  A
C694        C695   1.400       .  A
C694        H699   1.084       .  S
C695        C696   1.413       .  A
C695        O700   1.372       .  S
C696        C697   1.409       .  A
C697        C698   1.406       .  A
C697        H701   1.083       .  S
C698        O702   1.371       .  S
O700        H704   0.991       .  S
O702        H703   0.992       .  S
C705        C706   1.408       .  A
C705        C710   1.413       .  A
C706        C707   1.405       .  A
C706        H711   1.083       .  S
C707        C708   1.413       .  A
C707        O712   1.371       .  S
C708        C709   1.407       .  A
C709        C710   1.402       .  A
C709        H713   1.083       .  S
C710        O714   1.371       .  S
O712        H716   0.992       .  S
O714        H715   0.992       .  S
C717        C718   1.404       .  A
C717        C722   1.411       .  A
C718        C719   1.394       .  A
C718        H723   1.083       .  S
C719        C720   1.411       .  A
C719        O724   1.372       .  S
C720        C721   1.406       .  A
C721        C722   1.398       .  A
C721        H725   1.083       .  S
C722        O726   1.372       .  S
O724        H728   0.991       .  S
O726        H727   0.991       .  S
C729        C730   1.398       .  A
C729        C734   1.403   1_554  A
C730        C731   1.396       .  A
C730        H735   1.085       .  S
C731        C732   1.414   1_554  A
C731        O736   1.372       .  S
C732        C733   1.409       .  A
C733        C734   1.402       .  A
C733        H737   1.081       .  S
C734       O1586   1.372       .  S
O736        H740   0.992   1_554  S
O738       C1582   1.372       .  S
O738        H739   0.992       .  S
C741        C742   1.400       .  A
C741        C746   1.400   1_554  A
C742        C743   1.401       .  A
C742        H747   1.083       .  S
C743        C744   1.413       .  A
C743        O748   1.371       .  S
C744        C745   1.411   1_554  A
C745        C746   1.398       .  A
C745       H1597   1.083       .  S
C746       O1598   1.372       .  S
O748        H752   0.991       .  S
H749       C1593   1.084       .  S
O750       C1594   1.372       .  S
O750        H751   0.991       .  S
C753        C754   1.411       .  A
C753        C758   1.414       .  A
C754        C755   1.398       .  A
C754        H759   1.078       .  S
C755        C756   1.407       .  A
C755        O760   1.372       .  S
C756        C757   1.400       .  A
C757        C758   1.394       .  A
C757        H761   1.084       .  S
C758        O762   1.374       .  S
O760        H764   0.992       .  S
O762        H763   0.992       .  S
C765        C766   1.408       .  A
C765        C770   1.417       .  A
C766        C767   1.402       .  A
C766        H771   1.083       .  S
C767        C768   1.405       .  A
C767        O772   1.372       .  S
C768        C769   1.400       .  A
C769        C770   1.405       .  A
C769        H773   1.084       .  S
C770        O774   1.372       .  S
O772        H776   0.991       .  S
O774        H775   0.992       .  S
C777        C778   1.406       .  A
C777        C782   1.414       .  A
C778        C779   1.404       .  A
C778        H783   1.083       .  S
C779        C780   1.415       .  A
C779        O784   1.371       .  S
C780        C781   1.407       .  A
C781        C782   1.405       .  A
C781        H785   1.083       .  S
C782        O786   1.371       .  S
O784        H788   0.992       .  S
O786        H787   0.992       .  S
C789        C790   1.404       .  A
C789        C794   1.412       .  A
C790        C791   1.396       .  A
C790        H795   1.083       .  S
C791        C792   1.412       .  A
C791        O796   1.372       .  S
C792        C793   1.404       .  A
C793        C794   1.397       .  A
C793        H797   1.083       .  S
C794        O798   1.372       .  S
O796        H800   0.991       .  S
O798        H799   0.991       .  S
C801        C806   1.409       .  A
C801       C1650   1.399       .  A
C802        C803   1.397       .  A
C802       C1649   1.401       .  A
C802        H807   1.082       .  S
C803       C1652   1.407       .  A
C803        O808   1.368       .  S
C804        C805   1.405       .  A
C804       C1651   1.408       .  A
C805        C806   1.404       .  A
C805        H809   1.083       .  S
C806        O810   1.371       .  S
O808        H812   0.992       .  S
O810        H811   0.992       .  S
C813        C814   1.411       .  A
C813       C1666   1.408   1_554  A
C814        C815   1.405       .  A
C814        H819   1.083       .  S
C815        C816   1.404       .  A
C815        O820   1.371       .  S
C816       C1665   1.408   1_554  A
C817        C818   1.391       .  A
C817       C1664   1.408       .  A
C817        H821   1.083       .  S
C818       C1661   1.408       .  A
C818        O822   1.372       .  S
O820        H824   0.992       .  S
O822        H823   0.992       .  S
C825        C826   1.403       .  A
C825        C830   1.405       .  A
C826        C827   1.396       .  A
C826        H831   1.083       .  S
C827        C828   1.413       .  A
C827        O832   1.372       .  S
C828        C829   1.413       .  A
C829        C830   1.394       .  A
C829        H833   1.075       .  S
C830        O834   1.373       .  S
O832        H836   0.991       .  S
O834        H835   0.991       .  S
C837        C838   1.401       .  A
C837        C842   1.407       .  A
C838        C839   1.407       .  A
C838        H843   1.084       .  S
C839        C840   1.417       .  A
C839        O844   1.371       .  S
C840        C841   1.409       .  A
C841        C842   1.402       .  A
C841        H845   1.083       .  S
C842        O846   1.372       .  S
O844        H848   0.991       .  S
O846        H847   0.992       .  S
C849        C850   1.538       .  S
C849        C855   1.528   1_556  S
C849        C853   1.541       .  S
C849       C1676   1.531       .  S
C850        H857   1.087       .  S
C851        C852   1.545       .  S
C851       C1652   1.482       .  S
C852        C856   1.555       .  S
C852        C854   1.544       .  S
C852        H858   1.109       .  S
C853        H859   1.078       .  S
C854       C1664   1.491       .  S
C856       C1685   1.487       .  S
O861       Ni869   1.931       .  S
O861        C871   1.285       .  A
O862       Ni869   1.928       .  S
O862        C872   1.284       .  A
O863       Ni869   1.908       .  S
O863        C873   1.280       .  A
O864       Ni869   1.904       .  S
O864        C874   1.280       .  A
O865       Ni870   1.913       .  S
O865        C874   1.280       .  A
O866       Ni870   1.912       .  S
O866        C873   1.281       .  A
O867       Ni870   1.925       .  S
O867        C872   1.283       .  A
O868       Ni870   1.930       .  S
O868        C871   1.284       .  A
Ni869      Ni870   2.382       .  S
C871       C1688   1.503       .  S
C872       C1625   1.498       .  S
C873       C1637   1.481       .  S
C874       C1673   1.475       .  S
C875        C876   1.530       .  S
C875        C881   1.527       .  S
C875        C879   1.538       .  S
C875       C1601   1.523       .  S
C876        H883   1.087       .  S
C876        C877   1.357       .  D
C877       C1589   1.471       .  S
C878        C882   1.545       .  S
C878        H884   1.110       .  S
C879        H885   1.078       .  S
C879        C880   1.371       .  D
C880       C1580   1.502       .  S
C881        H886   1.087       .  S
C882       C1616   1.483       .  S
O887       Ni895   1.922       .  S
O887        C897   1.282       .  A
O888       Ni895   1.922       .  S
O888        C898   1.283       .  A
O889       Ni895   1.911       .  S
O889        C899   1.280       .  A
O890       Ni895   1.913       .  S
O890        C900   1.282       .  A
O891       Ni896   1.908       .  S
O891        C900   1.279       .  A
O892       Ni896   1.904       .  S
O892        C899   1.279       .  A
O893       Ni896   1.928       .  S
O893        C898   1.284       .  A
O894       Ni896   1.924       .  S
O894        C897   1.284       .  A
Ni895      Ni896   2.384       .  S
C897       C1556   1.494       .  S
C898       C1613   1.497       .  S
C899       C1604   1.469       .  S
C900       C1565   1.481       .  S
O901       Ni909   1.918       .  S
O901        C911   1.281       .  A
O902        C912   1.283       .  A
O903        C913   1.282       .  A
O904       Ni909   1.911       .  S
O904        C914   1.281       .  A
O905       Ni910   1.908       .  S
O905        C914   1.279       .  A
O906        C913   1.279       .  A
O907        C912   1.284       .  A
O908       Ni910   1.927       .  S
O908        C911   1.284       .  A
Ni909      Ni910   2.383       .  S
C911       C1553   1.494       .  S
C912       C1628   1.497       .  S
C913       C1568   1.482       .  S
C914       C1640   1.480       .  S
C915        C916   1.537       .  S
C915        C921   1.526       .  S
C915        C919   1.541       .  S
C915       C1532   1.529       .  S
C916        H923   1.086       .  S
C916        C917   1.366       .  D
C917       C1649   1.486       .  S
C918        C922   1.547       .  S
C918        H924   1.110       .  S
C919        H925   1.081       .  S
C919        C920   1.365       .  D
C920       C1517   1.484       .  S
C921        H926   1.087       .  S
C922       C1541   1.484       .  S
O927       Ni935   1.921       .  S
O927        C937   1.282       .  A
O928       Ni935   1.920       .  S
O928        C938   1.282       .  A
O929       Ni935   1.915       .  S
O929        C939   1.281       .  A
O930       Ni935   1.914       .  S
O930        C940   1.281       .  A
O931       Ni936   1.910       .  S
O931        C940   1.280       .  A
O932       Ni936   1.912       .  S
O932        C939   1.280       .  A
O933       Ni936   1.921       .  S
O933        C938   1.282       .  A
O934       Ni936   1.925       .  S
O934        C937   1.283       .  A
Ni935      Ni936   2.385       .  S
C937       C1544   1.492       .  S
C938       C1493   1.490       .  S
C939       C1505   1.478       .  S
C940       C1529   1.471       .  S
C941        C942   1.544       .  S
C941        C947   1.529   1_556  S
C941        C945   1.535       .  S
C941       C1469   1.532       .  S
C942        H949   1.081       .  S
C943        C944   1.550       .  S
C943       C1460   1.496       .  S
C944        C948   1.544       .  S
C944        C946   1.542       .  S
C944        H950   1.109       .  S
C945        H951   1.086       .  S
C946       C1445   1.487       .  S
C948       C1481   1.482       .  S
O953       Ni961   1.929       .  S
O953        C963   1.284       .  A
O954       Ni961   1.923       .  S
O954        C964   1.282       .  A
O955       Ni961   1.923       .  S
O955        C965   1.283       .  A
O956       Ni961   1.922       .  S
O956        C966   1.283       .  A
O957       Ni962   1.908       .  S
O957        C966   1.279       .  A
O958       Ni962   1.906       .  S
O958        C965   1.279       .  A
O959       Ni962   1.917       .  S
O959        C964   1.283       .  A
O960       Ni962   1.922       .  S
O960        C963   1.282       .  A
Ni961      Ni962   2.382       .  S
C963       C1484   1.497       .  S
C964       C1421   1.491       .  S
C965       C1433   1.486       .  S
C966       C1472   1.483       .  S
O967        C977   1.280       .  A
O968       Ni975   1.914       .  S
O968        C978   1.281       .  A
O969       Ni975   1.913       .  S
O969        C979   1.282       .  A
O970        C980   1.281       .  A
O971        C980   1.281       .  A
O972       Ni976   1.915       .  S
O972        C979   1.280       .  A
O973       Ni976   1.927       .  S
O973        C978   1.284       .  A
O974        C977   1.284       .  A
Ni975      Ni976   2.383       .  S
C977       C1424   1.492       .  S
C978       C1496   1.490       .  S
C979       C1436   1.484       .  S
C980       C1508   1.479       .  S
C981        C982   1.543       .  S
C981        C987   1.529   1_556  S
C981        C985   1.534       .  S
C981       C1397   1.532       .  S
C982        H989   1.078       .  S
C983        C984   1.542       .  S
C983       C1592   1.482       .  S
C984        C988   1.545       .  S
C984        C986   1.541       .  S
C984        H990   1.110       .  S
C985        H991   1.086       .  S
C986       C1385   1.485       .  S
C988       C1409   1.481       .  S
O993      Ni1001   1.934       .  S
O993       C1003   1.286       .  A
O994      Ni1001   1.926       .  S
O994       C1004   1.283       .  A
O995      Ni1001   1.917       .  S
O995       C1005   1.281       .  A
O996      Ni1001   1.915       .  S
O996       C1006   1.281       .  A
O997      Ni1002   1.910       .  S
O997       C1006   1.280       .  A
O998      Ni1002   1.910       .  S
O998       C1005   1.281       .  A
O999      Ni1002   1.911       .  S
O999       C1004   1.281       .  A
O1000     Ni1002   1.911       .  S
O1000      C1003   1.280       .  A
Ni1001    Ni1002   2.385       .  S
C1003      C1412   1.494       .  S
C1004      C1361   1.490       .  S
C1005      C1376   1.480       .  S
C1006      C1400   1.473       .  S
C1007      C1008   1.536       .  S
C1007      C1013   1.526       .  S
C1007      C1011   1.539       .  S
C1007      C1337   1.527       .  S
C1008      H1015   1.087       .  S
C1008      C1009   1.363       .  D
C1009      C1325   1.483       .  S
C1010      C1014   1.544       .  S
C1010      H1016   1.109       .  S
C1011      H1017   1.081       .  S
C1011      C1012   1.368       .  D
C1012      C1313   1.488       .  S
C1013      H1018   1.087       .  S
C1014      C1349   1.477       .  S
O1019     Ni1027   1.923       .  S
O1019      C1029   1.283       .  A
O1020     Ni1027   1.921       .  S
O1020      C1030   1.282       .  A
O1021     Ni1027   1.910       .  S
O1021      C1031   1.280       .  A
O1022     Ni1027   1.913       .  S
O1022      C1032   1.281       .  A
O1023     Ni1028   1.913       .  S
O1023      C1032   1.280       .  A
O1024     Ni1028   1.910       .  S
O1024      C1031   1.281       .  A
O1025     Ni1028   1.924       .  S
O1025      C1030   1.283       .  A
O1026     Ni1028   1.921       .  S
O1026      C1029   1.283       .  A
Ni1027    Ni1028   2.383       .  S
C1029      C1292   1.492       .  S
C1030      C1352   1.494       .  S
C1031      C1340   1.476       .  S
C1032      C1301   1.484       .  S
O1033      C1043   1.282       .  A
O1034     Ni1041   1.913       .  S
O1034      C1044   1.281       .  A
O1035     Ni1041   1.908       .  S
O1035      C1045   1.280       .  A
O1036      C1046   1.280       .  A
O1037      C1046   1.282       .  A
O1038     Ni1042   1.918       .  S
O1038      C1045   1.282       .  A
O1039     Ni1042   1.931       .  S
O1039      C1044   1.284       .  A
O1040      C1043   1.282       .  A
Ni1041    Ni1042   2.384       .  S
C1043      C1364   1.490       .  S
C1044      C1289   1.492       .  S
C1045      C1373   1.481       .  S
C1046      C1304   1.484       .  S
C1047      C1048   1.532       .  S
C1047      C1053   1.530       .  S
C1047      C1051   1.540       .  S
C1047      C1265   1.522       .  S
C1048      H1055   1.087       .  S
C1048      C1049   1.358       .  D
C1049      C1457   1.475       .  S
C1050      C1054   1.542       .  S
C1050      H1056   1.110       .  S
C1051      H1057   1.078       .  S
C1051      C1052   1.371       .  D
C1052      C1253   1.491       .  S
C1053      H1058   1.087       .  S
C1054      C1280   1.483       .  S
O1059     Ni1067   1.923       .  S
O1059      C1069   1.283       .  A
O1060     Ni1067   1.928       .  S
O1060      C1070   1.284       .  A
O1061     Ni1067   1.907       .  S
O1061      C1071   1.280       .  A
O1062     Ni1067   1.910       .  S
O1062      C1072   1.280       .  A
O1063     Ni1068   1.900       .  S
O1063      C1072   1.278       .  A
O1064     Ni1068   1.903       .  S
O1064      C1071   1.279       .  A
O1065     Ni1068   1.921       .  S
O1065      C1070   1.282       .  A
O1066     Ni1068   1.921       .  S
O1066      C1069   1.282       .  A
Ni1067    Ni1068   2.387       .  S
C1069      C1277   1.489       .  S
C1070      C1232   1.491       .  S
C1071      C1244   1.476       .  S
C1072      C1268   1.463       .  S
C1073      C1074   1.536       .  S
C1073      C1079   1.536   1_556  S
C1073      C1077   1.534       .  S
C1073      C1208   1.521       .  S
C1074      H1081   1.087       .  S
C1075      C1076   1.542       .  S
C1075      C1328   1.479       .  S
C1076      C1080   1.547       .  S
C1076      C1078   1.539       .  S
C1076      H1082   1.111       .  S
C1077      H1083   1.086       .  S
C1078      C1193   1.481       .  S
C1080      C1217   1.482       .  S
O1085     Ni1093   1.917       .  S
O1085      C1095   1.282       .  A
O1086     Ni1093   1.915       .  S
O1086      C1096   1.281       .  A
O1087     Ni1093   1.913       .  S
O1087      C1097   1.281       .  A
O1088     Ni1093   1.911       .  S
O1088      C1098   1.279       .  A
O1089     Ni1094   1.898       .  S
O1089      C1098   1.276       .  A
O1090     Ni1094   1.906       .  S
O1090      C1097   1.279       .  A
O1091     Ni1094   1.927       .  S
O1091      C1096   1.284       .  A
O1092     Ni1094   1.928       .  S
O1092      C1095   1.284       .  A
Ni1093    Ni1094   2.390       .  S
C1095      C1220   1.488       .  S
C1096      C1169   1.487       .  S
C1097      C1184   1.471       .  S
C1098      C1205   1.450       .  S
O1099     Ni1107   1.923       .  S
O1099      C1109   1.283       .  A
O1100      C1110   1.282       .  A
O1101      C1111   1.280       .  A
O1102     Ni1107   1.910       .  S
O1102      C1112   1.280       .  A
O1103     Ni1108   1.911       .  S
O1103      C1112   1.280       .  A
O1104      C1111   1.279       .  A
O1105      C1110   1.283       .  A
O1106     Ni1108   1.925       .  S
O1106      C1109   1.283       .  A
Ni1107    Ni1108   2.385       .  S
C1109      C1229   1.492       .  S
C1110      C1172   1.487       .  S
C1111      C1241   1.476       .  S
C1112      C1181   1.473       .  S
O1113     Ni1121   1.920   1_545  S
O1114     Ni1121   1.918       .  S
O1115     Ni1121   1.909       .  S
O1116     Ni1121   1.911   1_545  S
O1117     Ni1122   1.917       .  S
O1117      C1126   1.283   1_565  A
O1118     Ni1122   1.919       .  S
O1118      C1125   1.282       .  A
O1119     Ni1122   1.919       .  S
O1119      C1124   1.281       .  A
O1120     Ni1122   1.920   1_545  S
O1120      C1123   1.280       .  A
C1123      C1137   1.474       .  S
C1124      C1448   1.489       .  S
C1125      C1151   1.467       .  S
C1126      C1316   1.487       .  S
O1127     Ni1135   1.929       .  S
O1127      C1137   1.284       .  A
O1128     Ni1135   1.923   1_655  S
O1128      C1138   1.283       .  A
O1129     Ni1135   1.916   1_655  S
O1129      C1139   1.280       .  A
O1130     Ni1135   1.908       .  S
O1130      C1140   1.278       .  A
O1131     Ni1136   1.921       .  S
O1132     Ni1136   1.920   1_655  S
O1133     Ni1136   1.910   1_655  S
O1134     Ni1136   1.914       .  S
C1138      C1577   1.469       .  S
C1139      C1167   1.468       .  S
C1140      C1196   1.484       .  S
O1141     Ni1149   1.916   1_455  S
O1142     Ni1149   1.919       .  S
O1143     Ni1149   1.913       .  S
O1144     Ni1149   1.909   1_455  S
O1145     Ni1150   1.915   1_455  S
O1145      C1154   1.281       .  A
O1146     Ni1150   1.915       .  S
O1146      C1153   1.282       .  A
O1147     Ni1150   1.911       .  S
O1147      C1152   1.279       .  A
O1148     Ni1150   1.918   1_455  S
O1148      C1151   1.281       .  A
C1152      C1661   1.484       .  S
C1153      C1165   1.464       .  S
C1154      C1256   1.465       .  S
O1155     Ni1163   1.927       .  S
O1156     Ni1163   1.929   1_545  S
O1157     Ni1163   1.912   1_545  S
O1158     Ni1163   1.910       .  S
O1159     Ni1164   1.924       .  S
O1159      C1168   1.284       .  A
O1160     Ni1164   1.923   1_545  S
O1160      C1167   1.283       .  A
O1161     Ni1164   1.907   1_545  S
O1161      C1166   1.278       .  A
O1162     Ni1164   1.903       .  S
O1162      C1165   1.277       .  A
C1166      C1388   1.487       .  S
C1168      C1520   1.485       .  S
C1169      C1170   1.406       .  A
C1169      C1174   1.411       .  A
C1170      C1171   1.402       .  A
C1170      H1175   1.083       .  S
C1171      C1172   1.411       .  A
C1171      O1176   1.372       .  S
C1172      C1173   1.406       .  A
C1173      C1174   1.403       .  A
C1173      H1177   1.083       .  S
C1174      O1178   1.371       .  S
O1176      H1180   0.992       .  S
O1178      H1179   0.990       .  S
C1181      C1182   1.405       .  A
C1181      C1186   1.408       .  A
C1182      C1183   1.398       .  A
C1182      H1187   1.084       .  S
C1183      C1184   1.408       .  A
C1183      O1188   1.372       .  S
C1184      C1185   1.403       .  A
C1185      C1186   1.396       .  A
C1185      H1189   1.084       .  S
C1186      O1190   1.372       .  S
O1188      H1192   0.994       .  S
O1190      H1191   0.990       .  S
C1193      C1194   1.400       .  A
C1194      C1195   1.401       .  A
C1194      H1199   1.084       .  S
C1195      C1196   1.417       .  A
C1195      O1200   1.372       .  S
C1197      C1198   1.396       .  A
C1197      H1201   1.083       .  S
C1198      O1202   1.372       .  S
O1200      H1204   0.992       .  S
O1202      H1203   0.990       .  S
C1205      C1206   1.392       .  A
C1205      C1210   1.400       .  A
C1206      C1207   1.394       .  A
C1206      H1211   1.084       .  S
C1207      C1208   1.419       .  A
C1207      O1212   1.373       .  S
C1208      C1209   1.410       .  A
C1209      C1210   1.394       .  A
C1209      H1213   1.076       .  S
C1210      O1214   1.373       .  S
O1212      H1216   0.992       .  S
O1214      H1215   0.992       .  S
C1217      C1218   1.402       .  A
C1217      C1222   1.408       .  A
C1218      C1219   1.408       .  A
C1218      H1223   1.084       .  S
C1219      C1220   1.414       .  A
C1219      O1224   1.371       .  S
C1220      C1221   1.405       .  A
C1221      C1222   1.397       .  A
C1221      H1225   1.084       .  S
C1222      O1226   1.372       .  S
O1224      H1228   0.992       .  S
O1226      H1227   0.992       .  S
C1229      C1230   1.406       .  A
C1229      C1234   1.413       .  A
C1230      C1231   1.404       .  A
C1230      H1235   1.083       .  S
C1231      C1232   1.413       .  A
C1231      O1236   1.372       .  S
C1232      C1233   1.406       .  A
C1233      C1234   1.404       .  A
C1233      H1237   1.083       .  S
C1234      O1238   1.371       .  S
O1236      H1240   0.992       .  S
O1238      H1239   0.992       .  S
C1241      C1242   1.404       .  A
C1241      C1246   1.411       .  A
C1242      C1243   1.392       .  A
C1242      H1247   1.083       .  S
C1243      C1244   1.411       .  A
C1243      O1248   1.372       .  S
C1244      C1245   1.405       .  A
C1245      C1246   1.397       .  A
C1245      H1249   1.083       .  S
C1246      O1250   1.372       .  S
O1248      H1252   0.993       .  S
O1250      H1251   0.993       .  S
C1253      C1254   1.408       .  A
C1254      C1255   1.401       .  A
C1254      H1259   1.082       .  S
C1255      C1256   1.403       .  A
C1255      O1260   1.372       .  S
C1257      C1258   1.397       .  A
C1257      H1261   1.085       .  S
C1258      O1262   1.374       .  S
O1260      H1264   0.991       .  S
O1262      H1263   0.992       .  S
C1265      C1266   1.412       .  A
C1265      C1270   1.415       .  A
C1266      C1267   1.398       .  A
C1266      H1271   1.076       .  S
C1267      C1268   1.403       .  A
C1267      O1272   1.372       .  S
C1268      C1269   1.397       .  A
C1269      C1270   1.391       .  A
C1269      H1273   1.084       .  S
C1270      O1274   1.373       .  S
O1272      H1276   0.992       .  S
O1274      H1275   0.991       .  S
C1277      C1278   1.406       .  A
C1277      C1282   1.415       .  A
C1278      C1279   1.400       .  A
C1278      H1283   1.083       .  S
C1279      C1280   1.409       .  A
C1279      O1284   1.372       .  S
C1280      C1281   1.401       .  A
C1281      C1282   1.405       .  A
C1281      H1285   1.084       .  S
C1282      O1286   1.371       .  S
O1284      H1288   0.992       .  S
O1286      H1287   0.993       .  S
C1289      C1290   1.406       .  A
C1289      C1294   1.413       .  A
C1290      C1291   1.400       .  A
C1290      H1295   1.083       .  S
C1291      C1292   1.412       .  A
C1291      O1296   1.371       .  S
C1292      C1293   1.409       .  A
C1293      C1294   1.405       .  A
C1293      H1297   1.083       .  S
C1294      O1298   1.371       .  S
O1296      H1300   0.992       .  S
O1298      H1299   0.992       .  S
C1301      C1302   1.406       .  A
C1301      C1306   1.412       .  A
C1302      C1303   1.398       .  A
C1302      H1307   1.083       .  S
C1303      C1304   1.411       .  A
C1303      O1308   1.371       .  S
C1304      C1305   1.407       .  A
C1305      C1306   1.398       .  A
C1305      H1309   1.083       .  S
C1306      O1310   1.372       .  S
O1308      H1312   0.992       .  S
O1310      H1311   0.992       .  S
C1313      C1314   1.405       .  A
C1314      C1315   1.393       .  A
C1314      H1319   1.083       .  S
C1315      C1316   1.410       .  A
C1315      O1320   1.372       .  S
C1317      C1318   1.403       .  A
C1317      H1321   1.083       .  S
C1318      O1322   1.372       .  S
O1320      H1324   0.992       .  S
O1322      H1323   0.991       .  S
C1325      C1330   1.408       .  A
C1326      C1327   1.399       .  A
C1326      H1331   1.084       .  S
C1327      O1332   1.371       .  S
C1328      C1329   1.403       .  A
C1329      C1330   1.401       .  A
C1329      H1333   1.082       .  S
C1330      O1334   1.370       .  S
O1332      H1336   0.991       .  S
O1334      H1335   0.991       .  S
C1337      C1338   1.411       .  A
C1337      C1342   1.415       .  A
C1338      C1339   1.398       .  A
C1338      H1343   1.077       .  S
C1339      C1340   1.407       .  A
C1339      O1344   1.372       .  S
C1340      C1341   1.402       .  A
C1341      C1342   1.395       .  A
C1341      H1345   1.084       .  S
C1342      O1346   1.372       .  S
O1344      H1348   0.992       .  S
O1346      H1347   0.992       .  S
C1349      C1350   1.399       .  A
C1349      C1354   1.405       .  A
C1350      C1351   1.402       .  A
C1350      H1355   1.084       .  S
C1351      C1352   1.416       .  A
C1351      O1356   1.371       .  S
C1352      C1353   1.410       .  A
C1353      C1354   1.403       .  A
C1353      H1357   1.083       .  S
C1354      O1358   1.372       .  S
O1356      H1360   0.991       .  S
O1358      H1359   0.991       .  S
C1361      C1362   1.406       .  A
C1361      C1366   1.412       .  A
C1362      C1363   1.397       .  A
C1362      H1367   1.083       .  S
C1363      C1364   1.412       .  A
C1363      O1368   1.371       .  S
C1364      C1365   1.408       .  A
C1365      C1366   1.404       .  A
C1365      H1369   1.083       .  S
C1366      O1370   1.371       .  S
O1368      H1372   0.993       .  S
O1370      H1371   0.992       .  S
C1373      C1374   1.406       .  A
C1373      C1378   1.411       .  A
C1374      C1375   1.401       .  A
C1374      H1379   1.083       .  S
C1375      C1376   1.412       .  A
C1375      O1380   1.372       .  S
C1376      C1377   1.403       .  A
C1377      C1378   1.395       .  A
C1377      H1381   1.084       .  S
C1378      O1382   1.372       .  S
O1380      H1384   0.993       .  S
O1382      H1383   0.993       .  S
C1385      C1386   1.399       .  A
C1386      C1387   1.401       .  A
C1386      H1391   1.082       .  S
C1387      C1388   1.417       .  A
C1387      O1392   1.371       .  S
C1389      C1390   1.397       .  A
C1389      H1393   1.083       .  S
C1390      O1394   1.372       .  S
O1392      H1396   0.992       .  S
O1394      H1395   0.992       .  S
C1397      C1398   1.412       .  A
C1397      C1402   1.416       .  A
C1398      C1399   1.396       .  A
C1398      H1403   1.075       .  S
C1399      C1400   1.404       .  A
C1399      O1404   1.372       .  S
C1400      C1401   1.401       .  A
C1401      C1402   1.400       .  A
C1401      H1405   1.084       .  S
C1402      O1406   1.373       .  S
O1404      H1408   0.992       .  S
O1406      H1407   0.991       .  S
C1409      C1410   1.400       .  A
C1409      C1414   1.405       .  A
C1410      C1411   1.400       .  A
C1410      H1415   1.084       .  S
C1411      C1412   1.417       .  A
C1411      O1416   1.371       .  S
C1412      C1413   1.409       .  A
C1413      C1414   1.407       .  A
C1413      H1417   1.083       .  S
C1414      O1418   1.371       .  S
O1416      H1420   0.991       .  S
O1418      H1419   0.992       .  S
C1421      C1422   1.404       .  A
C1421      C1426   1.414       .  A
C1422      C1423   1.397       .  A
C1422      H1427   1.083       .  S
C1423      C1424   1.414       .  A
C1423      O1428   1.371       .  S
C1424      C1425   1.407       .  A
C1425      C1426   1.406       .  A
C1425      H1429   1.083       .  S
C1426      O1430   1.371       .  S
O1428      H1432   0.992       .  S
O1430      H1431   0.992       .  S
C1433      C1434   1.406       .  A
C1433      C1438   1.413       .  A
C1434      C1435   1.401       .  A
C1434      H1439   1.083       .  S
C1435      C1436   1.413       .  A
C1435      O1440   1.371       .  S
C1436      C1437   1.404       .  A
C1437      C1438   1.396       .  A
C1437      H1441   1.083       .  S
C1438      O1442   1.372       .  S
O1440      H1444   0.992       .  S
O1442      H1443   0.992       .  S
C1445      C1446   1.401       .  A
C1446      C1447   1.405       .  A
C1446      H1451   1.083       .  S
C1447      C1448   1.416       .  A
C1447      O1452   1.371       .  S
C1449      C1450   1.394       .  A
C1449      H1453   1.083       .  S
C1450      O1454   1.372       .  S
O1452      H1456   0.991       .  S
O1454      H1455   0.993       .  S
C1457      C1462   1.405       .  A
C1458      C1459   1.403       .  A
C1458      H1463   1.084       .  S
C1459      O1464   1.372       .  S
C1460      C1461   1.405       .  A
C1461      C1462   1.401       .  A
C1461      H1465   1.082       .  S
C1462      O1466   1.375       .  S
O1464      H1468   0.994       .  S
O1466      H1467   0.991       .  S
C1469      C1470   1.410       .  A
C1469      C1474   1.416       .  A
C1470      C1471   1.398       .  A
C1470      H1475   1.079       .  S
C1471      C1472   1.410       .  A
C1471      O1476   1.372       .  S
C1472      C1473   1.402       .  A
C1473      C1474   1.401       .  A
C1473      H1477   1.084       .  S
C1474      O1478   1.373       .  S
O1476      H1480   0.992       .  S
O1478      H1479   0.991       .  S
C1481      C1482   1.401       .  A
C1481      C1486   1.406       .  A
C1482      C1483   1.403       .  A
C1482      H1487   1.084       .  S
C1483      C1484   1.417       .  A
C1483      O1488   1.371       .  S
C1484      C1485   1.410       .  A
C1485      C1486   1.405       .  A
C1485      H1489   1.083       .  S
C1486      O1490   1.372       .  S
O1488      H1492   0.991       .  S
O1490      H1491   0.991       .  S
C1493      C1494   1.407       .  A
C1493      C1498   1.412       .  A
C1494      C1495   1.402       .  A
C1494      H1499   1.083       .  S
C1495      C1496   1.411       .  A
C1495      O1500   1.371       .  S
C1496      C1497   1.407       .  A
C1497      C1498   1.401       .  A
C1497      H1501   1.083       .  S
C1498      O1502   1.372       .  S
O1500      H1504   0.992       .  S
O1502      H1503   0.993       .  S
C1505      C1506   1.405       .  A
C1505      C1510   1.410       .  A
C1506      C1507   1.400       .  A
C1506      H1511   1.083       .  S
C1507      C1508   1.410       .  A
C1507      O1512   1.372       .  S
C1508      C1509   1.405       .  A
C1509      C1510   1.396       .  A
C1509      H1513   1.084       .  S
C1510      O1514   1.372       .  S
O1512      H1516   0.992       .  S
O1514      H1515   0.993       .  S
C1517      C1522   1.405       .  A
C1518      C1519   1.396       .  A
C1518      H1523   1.084       .  S
C1519      O1524   1.372       .  S
C1520      C1521   1.410       .  A
C1521      C1522   1.404       .  A
C1521      H1525   1.083       .  S
C1522      O1526   1.372       .  S
O1524      H1528   0.992       .  S
O1526      H1527   0.991       .  S
C1529      C1530   1.401       .  A
C1529      C1534   1.404       .  A
C1530      C1531   1.397       .  A
C1530      H1535   1.084       .  S
C1531      C1532   1.415       .  A
C1531      O1536   1.372       .  S
C1532      C1533   1.412       .  A
C1533      C1534   1.397       .  A
C1533      H1537   1.076       .  S
C1534      O1538   1.372       .  S
O1536      H1540   0.991       .  S
O1538      H1539   0.993       .  S
C1541      C1542   1.403       .  A
C1541      C1546   1.406       .  A
C1542      C1543   1.401       .  A
C1542      H1547   1.084       .  S
C1543      C1544   1.414       .  A
C1543      O1548   1.371       .  S
C1544      C1545   1.409       .  A
C1545      C1546   1.405       .  A
C1545      H1549   1.083       .  S
C1546      O1550   1.371       .  S
O1548      H1552   0.991       .  S
O1550      H1551   0.992       .  S
C1553      C1554   1.407       .  A
C1553      C1558   1.414       .  A
C1554      C1555   1.404       .  A
C1554      H1559   1.083       .  S
C1555      C1556   1.414       .  A
C1555      O1560   1.371       .  S
C1556      C1557   1.406       .  A
C1557      C1558   1.402       .  A
C1557      H1561   1.083       .  S
C1558      O1562   1.371       .  S
O1560      H1564   0.992       .  S
O1562      H1563   0.992       .  S
C1565      C1566   1.404       .  A
C1565      C1570   1.413       .  A
C1566      C1567   1.396       .  A
C1566      H1571   1.083       .  S
C1567      C1568   1.412       .  A
C1567      O1572   1.372       .  S
C1568      C1569   1.405       .  A
C1569      C1570   1.399       .  A
C1569      H1573   1.083       .  S
C1570      O1574   1.372       .  S
O1572      H1576   0.990       .  S
O1574      H1575   0.991       .  S
C1577      C1578   1.397       .  A
C1577      C1582   1.405       .  A
C1578      C1579   1.396       .  A
C1578      H1583   1.084       .  S
C1579      C1580   1.419       .  A
C1579      O1584   1.371       .  S
C1580      C1581   1.410       .  A
C1581      C1582   1.403       .  A
C1581      H1585   1.080       .  S
O1584      H1588   0.992       .  S
O1586      H1587   0.991       .  S
C1589      C1590   1.398       .  A
C1589      C1594   1.405       .  A
C1590      C1591   1.396       .  A
C1590      H1595   1.080       .  S
C1591      C1592   1.409       .  A
C1591      O1596   1.370       .  S
C1592      C1593   1.406       .  A
C1593      C1594   1.399       .  A
O1596      H1600   0.991       .  S
O1598      H1599   0.991       .  S
C1601      C1602   1.411       .  A
C1601      C1606   1.414       .  A
C1602      C1603   1.396       .  A
C1602      H1607   1.078       .  S
C1603      C1604   1.405       .  A
C1603      O1608   1.372       .  S
C1604      C1605   1.401       .  A
C1605      C1606   1.394       .  A
C1605      H1609   1.084       .  S
C1606      O1610   1.374       .  S
O1608      H1612   0.992       .  S
O1610      H1611   0.992       .  S
C1613      C1614   1.409       .  A
C1613      C1618   1.417       .  A
C1614      C1615   1.402       .  A
C1614      H1619   1.083       .  S
C1615      C1616   1.406       .  A
C1615      O1620   1.372       .  S
C1616      C1617   1.401       .  A
C1617      C1618   1.406       .  A
C1617      H1621   1.084       .  S
C1618      O1622   1.371       .  S
O1620      H1624   0.991       .  S
O1622      H1623   0.992       .  S
C1625      C1626   1.408       .  A
C1625      C1630   1.414       .  A
C1626      C1627   1.405       .  A
C1626      H1631   1.083       .  S
C1627      C1628   1.414       .  A
C1627      O1632   1.371       .  S
C1628      C1629   1.407       .  A
C1629      C1630   1.404       .  A
C1629      H1633   1.083       .  S
C1630      O1634   1.371       .  S
O1632      H1636   0.992       .  S
O1634      H1635   0.992       .  S
C1637      C1638   1.406       .  A
C1637      C1642   1.411       .  A
C1638      C1639   1.398       .  A
C1638      H1643   1.083       .  S
C1639      C1640   1.412       .  A
C1639      O1644   1.372       .  S
C1640      C1641   1.404       .  A
C1641      C1642   1.395       .  A
C1641      H1645   1.083       .  S
C1642      O1646   1.371       .  S
O1644      H1648   0.991       .  S
O1646      H1647   0.991       .  S
C1649      C1654   1.413       .  A
C1650      C1651   1.395       .  A
C1650      H1655   1.082       .  S
C1651      O1656   1.367       .  S
C1652      C1653   1.403       .  A
C1653      C1654   1.405       .  A
C1653      H1657   1.083       .  S
C1654      O1658   1.371       .  S
O1656      H1660   0.992   1_556  S
O1658      H1659   0.993       .  S
C1661      C1662   1.411       .  A
C1662      C1663   1.405       .  A
C1662      H1667   1.083       .  S
C1663      C1664   1.406       .  A
C1663      O1668   1.371       .  S
C1665      C1666   1.394       .  A
C1665      H1669   1.083       .  S
C1666      O1670   1.372       .  S
O1668      H1672   0.992       .  S
O1670      H1671   0.992       .  S
C1673      C1674   1.404       .  A
C1673      C1678   1.404       .  A
C1674      C1675   1.401       .  A
C1674      H1679   1.083       .  S
C1675      C1676   1.415       .  A
C1675      O1680   1.372       .  S
C1676      C1677   1.412       .  A
C1677      C1678   1.391       .  A
C1677      H1681   1.073       .  S
C1678      O1682   1.373       .  S
O1680      H1684   0.991       .  S
O1682      H1683   0.991       .  S
C1685      C1686   1.401       .  A
C1685      C1690   1.408       .  A
C1686      C1687   1.407       .  A
C1686      H1691   1.084       .  S
C1687      C1688   1.418       .  A
C1687      O1692   1.371       .  S
C1688      C1689   1.410       .  A
C1689      C1690   1.405       .  A
C1689      H1693   1.083       .  S
C1690      O1694   1.372       .  S
O1692      H1696   0.990       .  S
O1694      H1695   0.992       .  S
