geometry optimzed in LAMMPS
_audit_creation_date              2020-12-01 
_audit_creation_method            'lammps2cif' 
_symmetry_space_group_name_H-M    'P1' 
_symmetry_Int_Tables_number       1 
_symmetry_cell_setting            triclinic 
loop_ 
_symmetry_equiv_pos_as_xyz 
  x,y,z 
_cell_length_a                    73.23916221 
_cell_length_b                    73.93058989775874 
_cell_length_c                    73.84864974961165 
_cell_angle_alpha                 89.49819756982073 
_cell_angle_beta                  90.57310499796455 
_cell_angle_gamma                 90.54957124005357 
loop_ 
_atom_site_label 
_atom_site_type_symbol 
_atom_site_fract_x 
_atom_site_fract_y 
_atom_site_fract_z 
_atom_site_charge 
N1          N  0.36838528  0.14112988  0.79310531    -0.27300
N2          N  0.37764093  0.12620043  0.79639726    -0.35100
C3          C  0.37447171  0.11445210  0.78289935     0.01100
C4          C  0.36263430  0.12237552  0.77042145     0.07100
C5          C  0.35908888  0.13932216  0.77742753    -0.06000
H6          H  0.38032850  0.10110774  0.78234191     0.07700
H7          H  0.35063224  0.14975588  0.77149102     0.08900
Cu8        Cu  0.39400222  0.12261700  0.81922819     0.44200
Cu9        Cu  0.36913507  0.16334451  0.80996880     0.42000
Cu10       Cu  0.39534823  0.15970892  0.85163904     0.43900
N11         N  0.40718074  0.12131299  0.84421091    -0.34700
N12         N  0.40692219  0.13438735  0.85633181    -0.28900
C13         C  0.41447445  0.12823206  0.87187349    -0.05000
C14         C  0.42001707  0.11058626  0.86929774     0.07200
C15         C  0.41523465  0.10668020  0.85159397     0.01000
H16         H  0.41534910  0.13584141  0.88430343     0.08600
H17         H  0.41634134  0.09374370  0.84498061     0.07700
N18         N  0.38228106  0.18332835  0.84320244    -0.36100
N19         N  0.37242843  0.18431614  0.82813503    -0.28300
C20         C  0.36525863  0.20091337  0.82659929    -0.03500
C21         C  0.37091172  0.21103853  0.84133658     0.05100
C22         C  0.38176510  0.19944912  0.85157840     0.03200
H23         H  0.35663622  0.20528901  0.81544941     0.08300
H24         H  0.38842891  0.20236251  0.86437652     0.07100
N25         N  0.54525243  0.87233116  0.80419346    -0.27300
N26         N  0.53494925  0.88685402  0.80502312    -0.35100
C27         C  0.53583737  0.89587084  0.78914513     0.01100
C28         C  0.54733680  0.88661068  0.77770424     0.07100
C29         C  0.55306040  0.87174474  0.78779693    -0.06000
H30         H  0.52884870  0.90841308  0.78630948     0.07700
H31         H  0.56202510  0.86109929  0.78350751     0.08900
Cu32       Cu  0.52083330  0.89389535  0.82811851     0.44200
Cu33       Cu  0.54737138  0.85370238  0.82529027     0.42000
Cu34       Cu  0.52498317  0.86465047  0.86777617     0.43900
N35         N  0.51062721  0.90012724  0.85341655    -0.34700
N36         N  0.51285043  0.89008147  0.86817252    -0.28900
C37         C  0.50575594  0.89886814  0.88238195    -0.05000
C38         C  0.49849134  0.91505609  0.87614844     0.07200
C39         C  0.50183302  0.91532245  0.85774354     0.01000
H40         H  0.50568968  0.89375880  0.89615685     0.08600
H41         H  0.49857554  0.92605517  0.84823062     0.07700
N42         N  0.53639148  0.83954090  0.86224648    -0.36100
N43         N  0.54465637  0.83576606  0.84692078    -0.28300
C44         C  0.54996557  0.81840921  0.84736412    -0.03500
C45         C  0.54479049  0.81068233  0.86375795     0.05100
C46         C  0.53621243  0.82460146  0.87282297     0.03200
H47         H  0.55679682  0.81190381  0.83630758     0.08300
H48         H  0.53018751  0.82399643  0.88611830     0.07100
C49         C  0.46020497  0.03051686  0.93085399     0.03100
C50         C  0.45890390  0.03291116  0.94966829    -0.13000
C51         C  0.46242799  0.01858922  0.96182823     0.00600
C52         C  0.46737707  0.00162809  0.95496696    -0.11500
C53         C  0.46897839  0.99894796  0.93620126     0.03100
C54         C  0.46535768  0.01351694  0.92433926    -0.11000
H55         H  0.45513772  0.04596803  0.95492132     0.08700
H56         H  0.47009653  0.99055930  0.96427716     0.06200
H57         H  0.46653562  0.01160252  0.90989288     0.06100
N58         N  0.57126289  0.14859422  0.14341121    -0.27300
N59         N  0.55982663  0.13469182  0.14257402    -0.35100
C60         C  0.56127958  0.12491786  0.15797784     0.01100
C61         C  0.57436751  0.13301133  0.16901750     0.07100
C62         C  0.58039081  0.14799440  0.15929101    -0.06000
H63         H  0.55359216  0.11266015  0.16077234     0.07700
H64         H  0.59049079  0.15790305  0.16351718     0.08900
Cu65       Cu  0.54332593  0.12956047  0.12012444     0.44200
Cu66       Cu  0.57355508  0.16791920  0.12302968     0.42000
Cu67       Cu  0.54581192  0.16164409  0.08243234     0.43900
N68         N  0.52978386  0.12615902  0.09551470    -0.34700
N69         N  0.53121975  0.13737279  0.08152568    -0.28900
C70         C  0.52171586  0.13049289  0.06742008    -0.05000
C71         C  0.51370244  0.11435408  0.07292946     0.07200
C72         C  0.51907607  0.11206729  0.09079809     0.01000
H73         H  0.52056245  0.13686070  0.05421490     0.08600
H74         H  0.51583572  0.10073240  0.09959680     0.07700
N75         N  0.56172724  0.18457942  0.08733144    -0.36100
N76         N  0.57224251  0.18648590  0.10186355    -0.28300
C77         C  0.58090181  0.20256921  0.10098352    -0.03500
C78         C  0.57547628  0.21136242  0.08523330     0.05100
C79         C  0.56325128  0.19956446  0.07693038     0.03200
H80         H  0.59003016  0.20771339  0.11137602     0.08300
H81         H  0.55601969  0.20167464  0.06425252     0.07100
N82         N  0.35727663  0.89322747  0.14314148    -0.27300
N83         N  0.36579543  0.90889878  0.14097199    -0.35100
C84         C  0.36353611  0.91890025  0.15590903     0.01100
C85         C  0.35304801  0.90901874  0.16812436     0.07100
C86         C  0.34932382  0.89280962  0.15945021    -0.06000
H87         H  0.36941487  0.93223314  0.15779573     0.07700
H88         H  0.34206142  0.88118007  0.16484181     0.08900
Cu89       Cu  0.38086434  0.91513231  0.11806566     0.44200
Cu90       Cu  0.35848367  0.87246823  0.12461560     0.42000
Cu91       Cu  0.38757456  0.87831322  0.08574567     0.43900
N92         N  0.39482216  0.91786798  0.09384687    -0.34700
N93         N  0.39739922  0.90460970  0.08226240    -0.28900
C94         C  0.40654238  0.91119007  0.06789145    -0.05000
C95         C  0.40982688  0.92950616  0.07045894     0.07200
C96         C  0.40219636  0.93320207  0.08711628     0.01000
H97         H  0.41005215  0.90326878  0.05621460     0.08600
H98         H  0.40190127  0.94609868  0.09389975     0.07700
N99         N  0.37461373  0.85398065  0.09222398    -0.36100
N100        N  0.36361871  0.85224601  0.10622398    -0.28300
C101        C  0.35696508  0.83529363  0.10682515    -0.03500
C102        C  0.36410121  0.82572410  0.09254645     0.05100
C103        C  0.37532368  0.83801328  0.08357415     0.03200
H104        H  0.34780676  0.83027055  0.11714882     0.08300
H105        H  0.38318335  0.83563820  0.07151508     0.07100
C106        C  0.46856772  0.03969448  0.00848890     0.03100
C107        C  0.46891457  0.03709358  0.98960571    -0.13000
C108        C  0.46121855  0.02146423  0.98171267     0.00600
C109        C  0.45245396  0.00860566  0.99285368    -0.11500
C110        C  0.45147320  0.01117648  0.01163695     0.03100
C111        C  0.45987884  0.02647559  0.01929600    -0.11000
H112        H  0.47537664  0.04709198  0.98095397     0.08700
H113        H  0.44600282  0.99681997  0.98684236     0.06200
H114        H  0.46005012  0.02767086  0.03388282     0.06100
N115        N  0.60748137  0.91128435  0.65562120    -0.27300
N116        N  0.59217257  0.92027159  0.65325692    -0.35100
C117        C  0.58167506  0.91800448  0.66796906     0.01100
C118        C  0.59083977  0.90697787  0.68032870     0.07100
C119        C  0.60721758  0.90303683  0.67191478    -0.06000
H120        H  0.56830325  0.92385793  0.66937921     0.07700
H121        H  0.61822537  0.89481531  0.67714793     0.08900
Cu122      Cu  0.58670138  0.93449988  0.62958916     0.44200
Cu123      Cu  0.62757197  0.91076232  0.63605301     0.42000
Cu124      Cu  0.61869700  0.93114916  0.59148827     0.43900
N125        N  0.58261133  0.94592949  0.60419159    -0.34700
N126        N  0.59340465  0.94411829  0.59005774    -0.28900
C127        C  0.58566365  0.95258349  0.57567504    -0.05000
C128        C  0.56946662  0.96030795  0.58120851     0.07200
C129        C  0.56805454  0.95578259  0.59932460     0.01000
H130        H  0.59156588  0.95339405  0.56232540     0.08600
H131        H  0.55701714  0.95910466  0.60830649     0.07700
N132        N  0.64337869  0.91888819  0.59888988    -0.36100
N133        N  0.64618861  0.91153965  0.61506783    -0.28300
C134        C  0.66305229  0.90463590  0.61582365    -0.03500
C135        C  0.67150800  0.90771396  0.59939130     0.05100
C136        C  0.65862797  0.91690838  0.58896198     0.03200
H137        H  0.66876219  0.89794079  0.62763269     0.08300
H138        H  0.66009810  0.92151049  0.57511413     0.07100
N139        N  0.32368506  0.06705114  0.65231098    -0.27300
N140        N  0.34023656  0.06076201  0.64964757    -0.35100
C141        C  0.35047266  0.06360904  0.66459136     0.01100
C142        C  0.33985435  0.07226346  0.67726057     0.07100
C143        C  0.32292408  0.07420891  0.66895562    -0.06000
H144        H  0.36477544  0.06024491  0.66584196     0.07700
H145        H  0.31097185  0.08054131  0.67446832     0.08900
Cu146      Cu  0.34808426  0.05003093  0.62512466     0.44200
Cu147      Cu  0.30350935  0.06648472  0.63255219     0.42000
Cu148      Cu  0.31442278  0.04900992  0.58795651     0.43900
N149        N  0.35351783  0.04135785  0.59912272    -0.34700
N150        N  0.34150297  0.04071157  0.58564405    -0.28900
C151        C  0.35005232  0.03518339  0.57061211    -0.05000
C152        C  0.36835683  0.03238096  0.57479652     0.07200
C153        C  0.36992696  0.03639030  0.59304210     0.01000
H154        H  0.34354291  0.03400483  0.55745698     0.08600
H155        H  0.38215289  0.03601802  0.60136509     0.07700
N156        N  0.28941147  0.06063381  0.59434301    -0.36100
N157        N  0.28577331  0.06693626  0.61060046    -0.28300
C158        C  0.26928526  0.07468772  0.61027287    -0.03500
C159        C  0.26199826  0.07333579  0.59296172     0.05100
C160        C  0.27514131  0.06420895  0.58322504     0.03200
H161        H  0.26324253  0.08110417  0.62183961     0.08300
H162        H  0.27470677  0.06103449  0.56895345     0.07100
C163        C  0.46004277  0.01244722  0.52034876     0.03100
C164        C  0.45909275  0.01517725  0.50150986    -0.13000
C165        C  0.47389045  0.01074125  0.49042934     0.00600
C166        C  0.48985283  0.00369276  0.49846111    -0.11500
C167        C  0.49102151  0.00067309  0.51726176     0.03100
C168        C  0.47593597  0.00495539  0.52799583    -0.11000
H169        H  0.44696981  0.02108958  0.49548729     0.08700
H170        H  0.50129880  0.00033899  0.48999089     0.06200
H171        H  0.47634552  0.00204110  0.54238500     0.06100
N172        N  0.33047361  0.94019766  0.29785614    -0.27300
N173        N  0.34555707  0.94999190  0.29934990    -0.35100
C174        C  0.35369166  0.95087243  0.28308008     0.01100
C175        C  0.34315678  0.94110122  0.27073702     0.07100
C176        C  0.32854011  0.93456644  0.28071590    -0.06000
H177        H  0.36642375  0.95793834  0.28054221     0.07700
H178        H  0.31712724  0.92647728  0.27593967     0.08900
Cu179      Cu  0.35383219  0.96111942  0.32388771     0.44200
Cu180      Cu  0.31288173  0.93540615  0.31903939     0.42000
Cu181      Cu  0.32322982  0.95385262  0.36299516     0.43900
N182        N  0.35975839  0.96884511  0.35033830    -0.34700
N183        N  0.34926109  0.96566213  0.36454369    -0.28900
C184        C  0.35802942  0.97157042  0.37955067    -0.05000
C185        C  0.37463448  0.97908027  0.37447376     0.07200
C186        C  0.37521490  0.97712632  0.35588909     0.01000
H187        H  0.35258448  0.97074592  0.39309881     0.08600
H188        H  0.38626369  0.98110738  0.34705096     0.07700
N189        N  0.29847905  0.94094267  0.35669309    -0.36100
N190        N  0.29525383  0.93379180  0.34062667    -0.28300
C191        C  0.27874391  0.92578732  0.34055939    -0.03500
C192        C  0.27095700  0.92798742  0.35737853     0.05100
C193        C  0.28384597  0.93778551  0.36728006     0.03200
H194        H  0.27281775  0.91896588  0.32897401     0.08300
H195        H  0.28287047  0.94189175  0.38125822     0.07100
N196        N  0.60832552  0.09409358  0.29569395    -0.27300
N197        N  0.59304112  0.08476388  0.29775094    -0.35100
C198        C  0.58322769  0.08551452  0.28229642     0.01100
C199        C  0.59275430  0.09592378  0.26973736     0.07100
C200        C  0.60868808  0.10107897  0.27880881    -0.06000
H201        H  0.56994478  0.07922885  0.28060098     0.07700
H202        H  0.61957349  0.10965569  0.27377170     0.08900
Cu203      Cu  0.58570679  0.07311405  0.32217704     0.44200
Cu204      Cu  0.62717377  0.09724523  0.31666884     0.42000
Cu205      Cu  0.61579215  0.07888714  0.36162065     0.43900
N206        N  0.57864312  0.06602390  0.34833566    -0.34700
N207        N  0.58923427  0.06798543  0.36281852    -0.28900
C208        C  0.57959424  0.06300950  0.37757368    -0.05000
C209        C  0.56209059  0.05791781  0.37205030     0.07200
C210        C  0.56211867  0.05997709  0.35342336     0.01000
H211        H  0.58470159  0.06375228  0.39134289     0.08600
H212        H  0.55084226  0.05757088  0.34416855     0.07700
N213        N  0.64074834  0.09161772  0.35539815    -0.36100
N214        N  0.64441272  0.09839147  0.33917305    -0.28300
C215        C  0.66112708  0.10601287  0.33948070    -0.03500
C216        C  0.66860420  0.10402177  0.35668363     0.05100
C217        C  0.65526488  0.09472842  0.36642302     0.03200
H218        H  0.66742175  0.11239163  0.32784810     0.08300
H219        H  0.65591851  0.09079466  0.38055552     0.07100
C220        C  0.48672947  0.02022150  0.44134418     0.03100
C221        C  0.48734671  0.01957642  0.46040023    -0.13000
C222        C  0.47250658  0.01279592  0.47039973     0.00600
C223        C  0.45660324  0.00716486  0.46117149    -0.11500
C224        C  0.45557393  0.00768603  0.44215576     0.03100
C225        C  0.47077860  0.01410815  0.43240163    -0.11000
H226        H  0.49934502  0.02448967  0.46756000     0.08700
H227        H  0.44510974  0.00205129  0.46884260     0.06200
H228        H  0.47042382  0.01370290  0.41775512     0.06100
N229        N  0.63736052  0.65005789  0.89697127    -0.27300
N230        N  0.63612799  0.63658078  0.90870927    -0.35100
C231        C  0.65137436  0.62668340  0.90812122     0.01100
C232        C  0.66294596  0.63430978  0.89534585     0.07100
C233        C  0.65352812  0.64916549  0.88853536    -0.06000
H234        H  0.65363019  0.61466088  0.91624000     0.07700
H235        H  0.65808174  0.65874122  0.87835275     0.08900
Cu236      Cu  0.61311914  0.63191617  0.92392398     0.44200
Cu237      Cu  0.61647223  0.66855347  0.89370826     0.42000
Cu238      Cu  0.57355739  0.66102374  0.91893173     0.43900
N239        N  0.58754411  0.62545164  0.93350808    -0.34700
N240        N  0.57279749  0.63549567  0.93159291    -0.28900
C241        C  0.55818764  0.62562602  0.93704461    -0.05000
C242        C  0.56413238  0.60854078  0.94235484     0.07200
C243        C  0.58282998  0.60913227  0.94005522     0.01000
H244        H  0.54418940  0.63008980  0.93600618     0.08600
H245        H  0.59233699  0.59816866  0.94205036     0.07700
N246        N  0.57933502  0.68404367  0.90305812    -0.36100
N247        N  0.59457606  0.68613825  0.89374068    -0.28300
C248        C  0.59392098  0.70177465  0.88441165    -0.03500
C249        C  0.57755233  0.71017071  0.88792274     0.05100
C250        C  0.56866095  0.69857036  0.89993106     0.03200
H251        H  0.60480557  0.70676697  0.87587679     0.08300
H252        H  0.55529420  0.70038222  0.90570798     0.07100
N253        N  0.64485232  0.37750446  0.05673020    -0.27300
N254        N  0.64024348  0.39442939  0.05969691    -0.35100
C255        C  0.65512619  0.40378362  0.06509893     0.01100
C256        C  0.66986511  0.39216011  0.06543378     0.07100
C257        C  0.66282592  0.37561008  0.05998293    -0.06000
H258        H  0.65518195  0.41798176  0.06851570     0.07700
H259        H  0.67004759  0.36294930  0.05915956     0.08900
Cu260      Cu  0.61388075  0.40362480  0.05580333     0.44200
Cu261      Cu  0.62585407  0.35764466  0.05051552     0.42000
Cu262      Cu  0.57806286  0.37045201  0.04563239     0.43900
N263        N  0.58784080  0.41019927  0.04697543    -0.34700
N264        N  0.57483447  0.39836919  0.04284345    -0.28900
C265        C  0.56041638  0.40737748  0.03589577    -0.05000
C266        C  0.56457513  0.42576387  0.03567186     0.07200
C267        C  0.58208160  0.42692880  0.04286209     0.01000
H268        H  0.54798897  0.40094706  0.03107383     0.08600
H269        H  0.59046167  0.43896412  0.04426814     0.07700
N270        N  0.58688756  0.34380830  0.04858672    -0.36100
N271        N  0.60430759  0.33942180  0.04997606    -0.28300
C272        C  0.60565071  0.32150280  0.05260831    -0.03500
C273        C  0.58825209  0.31405319  0.05292909     0.05100
C274        C  0.57666807  0.32863219  0.05023977     0.03200
H275        H  0.61844819  0.31453601  0.05453783     0.08300
H276        H  0.56189891  0.32835908  0.05017455     0.07100
C277        C  0.49842675  0.49746149  0.98724631     0.03100
C278        C  0.50731404  0.51348348  0.98166920    -0.13000
C279        C  0.49734056  0.52852898  0.97541246     0.00600
C280        C  0.47816337  0.52734119  0.97500257    -0.11500
C281        C  0.46903245  0.51149495  0.98071164     0.03100
C282        C  0.47927403  0.49656630  0.98659234    -0.11000
H283        H  0.52207066  0.51425674  0.98239893     0.08700
H284        H  0.47025264  0.53868529  0.97003862     0.06200
H285        H  0.47229319  0.48451540  0.99146255     0.06100
N286        N  0.29099446  0.36752507  0.88916593    -0.27300
N287        N  0.29237213  0.38251583  0.89869748    -0.35100
C288        C  0.27612971  0.39091447  0.89832890     0.01100
C289        C  0.26396538  0.38072265  0.88795699     0.07100
C290        C  0.27395178  0.36595272  0.88247952    -0.06000
H291        H  0.27362167  0.40381583  0.90457996     0.07700
H292        H  0.26935226  0.35492964  0.87400321     0.08900
Cu293      Cu  0.31690222  0.39129447  0.91021756     0.44200
Cu294      Cu  0.31249034  0.35035177  0.88447359     0.42000
Cu295      Cu  0.35709567  0.36386101  0.89950660     0.43900
N296        N  0.34366906  0.39804595  0.91732688    -0.34700
N297        N  0.35812906  0.38852101  0.91283243    -0.28900
C298        C  0.37331847  0.39740524  0.91822530    -0.05000
C299        C  0.36822026  0.41315917  0.92670130     0.07200
C300        C  0.34932117  0.41309012  0.92594705     0.01000
H301        H  0.38707502  0.39269889  0.91614559     0.08600
H302        H  0.34034969  0.42351694  0.93073632     0.07700
N303        N  0.35195684  0.33958801  0.88630510    -0.36100
N304        N  0.33543960  0.33484688  0.88070206    -0.28300
C305        C  0.33610163  0.31845071  0.87309531    -0.03500
C306        C  0.35394992  0.31236551  0.87394432     0.05100
C307        C  0.36362943  0.32621453  0.88245606     0.03200
H308        H  0.32423770  0.31131588  0.86789764     0.08300
H309        H  0.37802472  0.32651795  0.88584862     0.07100
N310        N  0.29755494  0.65845110  0.06555676    -0.27300
N311        N  0.29910684  0.64227949  0.05838174    -0.35100
C312        C  0.28356330  0.63282993  0.06130293     0.01100
C313        C  0.27169037  0.64362985  0.07094493     0.07100
C314        C  0.28112360  0.65980778  0.07329052    -0.06000
H315        H  0.28136146  0.61894606  0.05726068     0.07700
H316        H  0.27653314  0.67171835  0.08025208     0.08900
Cu317      Cu  0.32334699  0.63443650  0.04647902     0.44200
Cu318      Cu  0.31833892  0.67747287  0.06502600     0.42000
Cu319      Cu  0.36245926  0.66739575  0.04637097     0.43900
N320        N  0.34959960  0.62925717  0.03750570    -0.34700
N321        N  0.36355267  0.64079035  0.03738572    -0.28900
C322        C  0.37832761  0.63233304  0.03095776    -0.05000
C323        C  0.37348822  0.61462219  0.02698259     0.07200
C324        C  0.35517133  0.61325011  0.03128048     0.01000
H325        H  0.39167450  0.63856480  0.02961553     0.08600
H326        H  0.34638386  0.60148778  0.02993266     0.07700
N327        N  0.35591433  0.69259794  0.05673567    -0.36100
N328        N  0.33966763  0.69583260  0.06350842    -0.28300
C329        C  0.33899975  0.71304947  0.06887635    -0.03500
C330        C  0.35565940  0.72136967  0.06541166     0.05100
C331        C  0.36610018  0.70788500  0.05765863     0.03200
H332        H  0.32696104  0.71896934  0.07461171     0.08300
H333        H  0.37998885  0.70906137  0.05292949     0.07100
C334        C  0.41969988  0.49513628  0.97615532     0.03100
C335        C  0.43889484  0.49566317  0.97529314    -0.13000
C336        C  0.44878179  0.51090263  0.98139853     0.00600
C337        C  0.43933624  0.52547185  0.98885602    -0.11500
C338        C  0.42022824  0.52513517  0.98998173     0.03100
C339        C  0.41058259  0.51013248  0.98316506    -0.11000
H340        H  0.44618099  0.48423532  0.96995979     0.08700
H341        H  0.44697457  0.53679832  0.99438573     0.06200
H342        H  0.39580243  0.51023794  0.98315090     0.06100
N343        N  0.78808437  0.42958898  0.12773786    -0.27300
N344        N  0.79375436  0.43071660  0.11083308    -0.35100
C345        C  0.77974819  0.42684449  0.09956384     0.01100
C346        C  0.76446143  0.42338836  0.10990045     0.07100
C347        C  0.77019418  0.42530950  0.12769667    -0.06000
H348        H  0.78046135  0.42726263  0.08494140     0.07700
H349        H  0.76198397  0.42369350  0.13971378     0.08900
Cu350      Cu  0.81970852  0.43943208  0.10404382     0.44200
Cu351      Cu  0.80527755  0.43360861  0.14985361     0.42000
Cu352      Cu  0.85159639  0.44972190  0.14044055     0.43900
N353        N  0.84493521  0.45156465  0.10020607    -0.34700
N354        N  0.85662339  0.45557474  0.11334082    -0.28900
C355        C  0.87120044  0.46411048  0.10612222    -0.05000
C356        C  0.86852588  0.46554132  0.08751273     0.07200
C357        C  0.85167425  0.45741768  0.08435883     0.01000
H358        H  0.88278658  0.46899664  0.11391637     0.08600
H359        H  0.84446167  0.45624277  0.07157479     0.07700
N360        N  0.84247330  0.44210833  0.16600583    -0.36100
N361        N  0.82574003  0.43615928  0.16932653    -0.28300
C362        C  0.82455445  0.43157299  0.18693687    -0.03500
C363        C  0.84131066  0.43486707  0.19519925     0.05100
C364        C  0.85231690  0.44159748  0.18148345     0.03200
H365        H  0.81236266  0.42615743  0.19319945     0.08300
H366        H  0.86659724  0.44534694  0.18251579     0.07100
N367        N  0.79050730  0.61210556  0.84645460    -0.27300
N368        N  0.79033461  0.60073746  0.86032296    -0.35100
C369        C  0.77379232  0.60102514  0.86802120     0.01100
C370        C  0.76289331  0.61319240  0.85850511     0.07100
C371        C  0.77407054  0.61992548  0.84488688    -0.06000
H372        H  0.77015593  0.59300462  0.87976744     0.07700
H373        H  0.77069864  0.62990904  0.83464424     0.08900
Cu374      Cu  0.81293007  0.58594750  0.86833890     0.44200
Cu375      Cu  0.81321287  0.61632755  0.83047120     0.42000
Cu376      Cu  0.85501645  0.59310486  0.84302111     0.43900
N377        N  0.83782011  0.57472697  0.87545192    -0.34700
N378        N  0.85328961  0.57793703  0.86684650    -0.28900
C379        C  0.86701082  0.56989138  0.87602126    -0.05000
C380        C  0.85975118  0.56100194  0.89093411     0.07200
C381        C  0.84122329  0.56433060  0.89009191     0.01000
H382        H  0.88120997  0.57051077  0.87214497     0.08600
H383        H  0.83104811  0.56015115  0.89982959     0.07700
N384        N  0.85190184  0.60833376  0.81935762    -0.36100
N385        N  0.83673546  0.61705031  0.81518591    -0.28300
C386        C  0.83873267  0.62533921  0.79907796    -0.03500
C387        C  0.85596015  0.62163509  0.79260279     0.05100
C388        C  0.86393062  0.61074442  0.80583194     0.03200
H389        H  0.82809688  0.63294873  0.79229926     0.08300
H390        H  0.87740358  0.60489541  0.80562058     0.07100
C391        C  0.92160884  0.52377057  0.97262011     0.03100
C392        C  0.91125955  0.51622591  0.98680511    -0.13000
C393        C  0.91982220  0.50812891  0.00191144     0.00600
C394        C  0.93894812  0.50803006  0.00304827    -0.11500
C395        C  0.94946782  0.51522274  0.98892210     0.03100
C396        C  0.94075239  0.52296474  0.97376679    -0.11000
H397        H  0.89649221  0.51679469  0.98627762     0.08700
H398        H  0.94566020  0.50152476  0.01447814     0.06200
H399        H  0.94899223  0.52818744  0.96276547     0.06100
N400        N  0.14791984  0.60432448  0.11633166    -0.27300
N401        N  0.14429070  0.59598142  0.10097048    -0.35100
C402        C  0.15894894  0.59697874  0.09021699     0.01100
C403        C  0.17264422  0.60651553  0.09914010     0.07100
C404        C  0.16510266  0.61101429  0.11571149    -0.06000
H405        H  0.15940232  0.59142449  0.07672637     0.07700
H406        H  0.17166157  0.61839534  0.12659912     0.08900
Cu407      Cu  0.11926063  0.58431933  0.09513628     0.44200
Cu408      Cu  0.12876372  0.60523950  0.13705434     0.42000
Cu409      Cu  0.08323182  0.58396947  0.12806162     0.43900
N410        N  0.09309393  0.57519867  0.08974689    -0.34700
N411        N  0.07956880  0.57491359  0.10145188    -0.28900
C412        C  0.06440537  0.56851887  0.09299887    -0.05000
C413        C  0.06869904  0.56478661  0.07509194     0.07200
C414        C  0.08704153  0.56917381  0.07370000     0.01000
H415        H  0.05120773  0.56703512  0.09931002     0.08600
H416        H  0.09555063  0.56805547  0.06189172     0.07700
N417        N  0.09190529  0.59435658  0.15307770    -0.36100
N418        N  0.10797424  0.60222322  0.15605643    -0.28300
C419        C  0.10905911  0.60721664  0.17351819    -0.03500
C420        C  0.09301544  0.60221858  0.18212794     0.05100
C421        C  0.08247640  0.59408373  0.16867592     0.03200
H422        H  0.12093034  0.61363893  0.17957309     0.08300
H423        H  0.06888979  0.58841010  0.17006465     0.07100
N424        N  0.13538220  0.41712772  0.85696578    -0.27300
N425        N  0.13265588  0.42313544  0.87346814    -0.35100
C426        C  0.14811141  0.42148198  0.88325946     0.01100
C427        C  0.16131107  0.41396905  0.87239148     0.07100
C428        C  0.15268373  0.41133020  0.85577914    -0.06000
H429        H  0.14954097  0.42542675  0.89727187     0.07700
H430        H  0.15862021  0.40603640  0.84359230     0.08900
Cu431      Cu  0.10798079  0.43350205  0.88135636     0.44200
Cu432      Cu  0.11526672  0.41850120  0.83710023     0.42000
Cu433      Cu  0.07148416  0.44009110  0.84796706     0.43900
N434        N  0.08259120  0.44358439  0.88724316    -0.34700
N435        N  0.06925698  0.44646048  0.87539290    -0.28900
C436        C  0.05488535  0.45335423  0.88422380    -0.05000
C437        C  0.05944078  0.45464308  0.90249383     0.07200
C438        C  0.07711721  0.44835030  0.90377364     0.01000
H439        H  0.04202429  0.45688441  0.87786765     0.08600
H440        H  0.08560517  0.44750617  0.91580976     0.07700
N441        N  0.07841173  0.43073528  0.82230033    -0.36100
N442        N  0.09411110  0.42286448  0.81877676    -0.28300
C443        C  0.09434140  0.41814491  0.80129134    -0.03500
C444        C  0.07799599  0.42316391  0.79315498     0.05100
C445        C  0.06823479  0.43117856  0.80697001     0.03200
H446        H  0.10577066  0.41155953  0.79507896     0.08300
H447        H  0.05463281  0.43669708  0.80607778     0.07100
C448        C  0.99880020  0.51837930  0.00497060     0.03100
C449        C  0.00768513  0.51070490  0.99008514    -0.13000
C450        C  0.99771341  0.50475817  0.97485357     0.00600
C451        C  0.97868313  0.50646997  0.97463138    -0.11500
C452        C  0.96956987  0.51373695  0.98945799     0.03100
C453        C  0.97964902  0.51955593  0.00463044    -0.11000
H454        H  0.02241752  0.50952733  0.99025187     0.08700
H455        H  0.97085420  0.50167516  0.96307104     0.06200
H456        H  0.97259027  0.52562089  0.01584735     0.06100
N457        N  0.89901355  0.68681291  0.62563041    -0.27300
N458        N  0.90738817  0.68309233  0.61039529    -0.35100
C459        C  0.90565297  0.69717304  0.59888020     0.01100
C460        C  0.89552313  0.71042772  0.60722553     0.07100
C461        C  0.89156627  0.70333741  0.62422066    -0.06000
H462        H  0.91085658  0.69743457  0.58522484     0.07700
H463        H  0.88382974  0.70965886  0.63479345     0.08900
Cu464      Cu  0.91921613  0.65826272  0.60584311     0.44200
Cu465      Cu  0.89822855  0.66867667  0.64715618     0.42000
Cu466      Cu  0.91768922  0.62328571  0.64088141     0.43900
N467        N  0.92745403  0.63185957  0.60217922    -0.34700
N468        N  0.92699662  0.61887900  0.61460170    -0.28900
C469        C  0.93281169  0.60339632  0.60707265    -0.05000
C470        C  0.93693506  0.60685817  0.58901215     0.07200
C471        C  0.93339728  0.62507696  0.58655441     0.01000
H472        H  0.93358080  0.59052786  0.61410604     0.08600
H473        H  0.93499692  0.63298263  0.57427494     0.07700
N474        N  0.90707542  0.63269014  0.66522698    -0.36100
N475        N  0.90003182  0.64896061  0.66720159    -0.28300
C476        C  0.89425740  0.65072559  0.68428633    -0.03500
C477        C  0.89775271  0.63483441  0.69372357     0.05100
C478        C  0.90594337  0.62370850  0.68114817     0.03200
H479        H  0.88800830  0.66283323  0.68937551     0.08300
H480        H  0.91046584  0.60995984  0.68326364     0.07100
N481        N  0.06686452  0.68571701  0.34920769    -0.27300
N482        N  0.05976916  0.68145885  0.36506011    -0.35100
C483        C  0.05938309  0.69634306  0.37540280     0.01100
C484        C  0.06668889  0.71075046  0.36561677     0.07100
C485        C  0.07126404  0.70343432  0.34903035    -0.06000
H486        H  0.05466351  0.69648780  0.38922991     0.07700
H487        H  0.07746649  0.71040038  0.33767445     0.08900
Cu488      Cu  0.05200103  0.65523974  0.37183307     0.44200
Cu489      Cu  0.07068430  0.66671196  0.32905818     0.42000
Cu490      Cu  0.06056890  0.61913571  0.33934295     0.43900
N491        N  0.04609449  0.62809925  0.37639738    -0.34700
N492        N  0.04982312  0.61479064  0.36518192    -0.28900
C493        C  0.04436092  0.59899679  0.37278849    -0.05000
C494        C  0.03653812  0.60268026  0.38936176     0.07200
C495        C  0.03790514  0.62122813  0.39115147     0.01000
H496        H  0.04537905  0.58591613  0.36644463     0.08600
H497        H  0.03328585  0.62919463  0.40241042     0.07700
N498        N  0.06959294  0.62852636  0.31412048    -0.36100
N499        N  0.07347151  0.64574137  0.31074025    -0.28300
C500        C  0.07917078  0.64746876  0.29357242    -0.03500
C501        C  0.07877650  0.63061457  0.28555148     0.05100
C502        C  0.07253180  0.61890348  0.29898092     0.03200
H503        H  0.08308219  0.66019112  0.28730148     0.08300
H504        H  0.07054000  0.60443162  0.29791746     0.07100
C505        C  0.98362460  0.55369796  0.47019775     0.03100
C506        C  0.98332141  0.53471332  0.47122882    -0.13000
C507        C  0.97693332  0.52577781  0.48684763     0.00600
C508        C  0.97051070  0.53599627  0.50143017    -0.11500
C509        C  0.97049912  0.55498083  0.50060724     0.03100
C510        C  0.97745376  0.56363415  0.48506385    -0.11000
H511        H  0.98805662  0.52687032  0.45990995     0.08700
H512        H  0.96497172  0.52907997  0.51317431     0.06200
H513        H  0.97824438  0.57826267  0.48459128     0.06100
N514        N  0.87355743  0.34425412  0.35984847    -0.27300
N515        N  0.88410027  0.34721039  0.37415049    -0.35100
C516        C  0.88437240  0.33216353  0.38455448     0.01100
C517        C  0.87337738  0.31906062  0.37645680     0.07100
C518        C  0.86678427  0.32729697  0.36077527    -0.06000
H519        H  0.89173668  0.33103195  0.39727014     0.07700
H520        H  0.85778593  0.32142627  0.35067524     0.08900
Cu521      Cu  0.89666419  0.37206792  0.37909863     0.44200
Cu522      Cu  0.86877405  0.36364138  0.33992454     0.42000
Cu523      Cu  0.88710707  0.40901127  0.34740689     0.43900
N524        N  0.90530357  0.39868011  0.38287291    -0.34700
N525        N  0.90129363  0.41228029  0.37181697    -0.28900
C526        C  0.90781072  0.42776685  0.37904155    -0.05000
C527        C  0.91652055  0.42368860  0.39532936     0.07200
C528        C  0.91465377  0.40510590  0.39723663     0.01000
H529        H  0.90633848  0.44100071  0.37286296     0.08600
H530        H  0.91920749  0.39687973  0.40856648     0.07700
N531        N  0.87310356  0.40125633  0.32395365    -0.36100
N532        N  0.86625256  0.38483369  0.32149498    -0.28300
C533        C  0.85813500  0.38409781  0.30511367    -0.03500
C534        C  0.86001705  0.40081349  0.29669351     0.05100
C535        C  0.86963469  0.41135529  0.30905821     0.03200
H536        H  0.85175695  0.37207409  0.29957816     0.08300
H537        H  0.87379486  0.42534563  0.30739685     0.07100
N538        N  0.05817723  0.33471574  0.62791387    -0.27300
N539        N  0.05082881  0.33833536  0.61194114    -0.35100
C540        C  0.05163121  0.32363017  0.60147756     0.01100
C541        C  0.05996891  0.30990178  0.61129070     0.07100
C542        C  0.06402754  0.31746996  0.62804971    -0.06000
H543        H  0.04678096  0.32314338  0.58760242     0.07700
H544        H  0.07052675  0.31090484  0.63952580     0.08900
Cu545      Cu  0.04086567  0.36345808  0.60518624     0.44200
Cu546      Cu  0.05899674  0.35431719  0.64793627     0.42000
Cu547      Cu  0.04145694  0.40067069  0.63673345     0.43900
N548        N  0.03381758  0.38953396  0.59837104    -0.34700
N549        N  0.03397974  0.40349632  0.60941571    -0.28900
C550        C  0.02926958  0.41842119  0.59980850    -0.05000
C551        C  0.02618530  0.41346677  0.58186820     0.07200
C552        C  0.02913125  0.39502825  0.58166854     0.01000
H553        H  0.02850823  0.43186844  0.60537909     0.08600
H554        H  0.02797420  0.38605707  0.57022847     0.07700
N555        N  0.05100793  0.39221227  0.66224881    -0.36100
N556        N  0.05751438  0.37587216  0.66578943    -0.28300
C557        C  0.06350788  0.37525655  0.68300861    -0.03500
C558        C  0.06066312  0.39187653  0.69087151     0.05100
C559        C  0.05258416  0.40230228  0.67735620     0.03200
H560        H  0.06967294  0.36351458  0.68930346     0.08300
H561        H  0.04880606  0.41637390  0.67821369     0.07100
C562        C  0.98362284  0.47835670  0.50547030     0.03100
C563        C  0.98388590  0.49724923  0.50370106    -0.13000
C564        C  0.97689600  0.50574107  0.48807783     0.00600
C565        C  0.96993930  0.49511532  0.47381498    -0.11500
C566        C  0.96924313  0.47609808  0.47533172     0.03100
C567        C  0.97583264  0.46798433  0.49144248    -0.11000
H568        H  0.98997040  0.50543386  0.51430042     0.08700
H569        H  0.96505013  0.50175602  0.46160953     0.06200
H570        H  0.97466117  0.45348949  0.49328783     0.06100
N571        N  0.11442424  0.83655082  0.39785964    -0.27300
N572        N  0.09824484  0.83734878  0.40552974    -0.35100
C573        C  0.08893927  0.82194138  0.40207894     0.01100
C574        C  0.09975851  0.81089001  0.39161793     0.07100
C575        C  0.11584821  0.82066960  0.38926723    -0.06000
H576        H  0.07512976  0.81923582  0.40647897     0.07700
H577        H  0.12775426  0.81661514  0.38183881     0.08900
Cu578      Cu  0.08947069  0.86002973  0.41928635     0.44200
Cu579      Cu  0.13344888  0.85751815  0.39891138     0.42000
Cu580      Cu  0.11935489  0.90004337  0.41860384     0.43900
N581        N  0.08255265  0.88496848  0.42991573    -0.34700
N582        N  0.09293733  0.89969609  0.42903200    -0.28900
C583        C  0.08366919  0.91366716  0.43595458    -0.05000
C584        C  0.06677479  0.90736232  0.44168103     0.07200
C585        C  0.06661393  0.88910977  0.43767991     0.01000
H586        H  0.08889813  0.92736991  0.43687662     0.08600
H587        H  0.05547997  0.87961363  0.43974667     0.07700
N588        N  0.14512582  0.89591004  0.40758916    -0.36100
N589        N  0.15004741  0.88038542  0.40044332    -0.28300
C590        C  0.16711052  0.88204763  0.39408956    -0.03500
C591        C  0.17341177  0.89948033  0.39732965     0.05100
C592        C  0.15906459  0.90785883  0.40601361     0.03200
H593        H  0.17433630  0.87125640  0.38757042     0.08300
H594        H  0.15859537  0.92172785  0.41049950     0.07100
N595        N  0.83610463  0.82971362  0.56989983    -0.27300
N596        N  0.85163314  0.83096313  0.56102546    -0.35100
C597        C  0.86137880  0.81590069  0.56414882     0.01100
C598        C  0.85153833  0.80452216  0.57560509     0.07100
C599        C  0.83553582  0.81382765  0.57891077    -0.06000
H600        H  0.87483945  0.81368141  0.55876692     0.07700
H601        H  0.82427124  0.80950188  0.58730653     0.08900
Cu602      Cu  0.85911719  0.85363261  0.54588453     0.44200
Cu603      Cu  0.81666187  0.84996392  0.56952163     0.42000
Cu604      Cu  0.82794464  0.89196325  0.54603888     0.43900
N605        N  0.86483118  0.87855876  0.53385189    -0.34700
N606        N  0.85396607  0.89273423  0.53456515    -0.28900
C607        C  0.86242303  0.90698962  0.52667370    -0.05000
C608        C  0.87927482  0.90145600  0.52047643     0.07200
C609        C  0.88027303  0.88333593  0.52522874     0.01000
H610        H  0.85667341  0.92037068  0.52542068     0.08600
H611        H  0.89165065  0.87440203  0.52309315     0.07700
N612        N  0.80260423  0.88673069  0.55795792    -0.36100
N613        N  0.79878595  0.87144654  0.56660124    -0.28300
C614        C  0.78153334  0.87195247  0.57256380    -0.03500
C615        C  0.77386931  0.88834493  0.56746308     0.05100
C616        C  0.78772800  0.89735476  0.55817262     0.03200
H617        H  0.77502018  0.86091502  0.57980755     0.08300
H618        H  0.78710762  0.91066709  0.55200641     0.07100
C619        C  0.98622351  0.97305180  0.47222761     0.03100
C620        C  0.97081960  0.96322489  0.47830795    -0.13000
C621        C  0.95521145  0.97199767  0.48480515     0.00600
C622        C  0.95504436  0.99107596  0.48462081    -0.11500
C623        C  0.97027583  0.00126763  0.47887928     0.03100
C624        C  0.98580779  0.99210630  0.47284802    -0.11000
H625        H  0.97104956  0.94863832  0.47812031     0.08700
H626        H  0.94309052  0.99812930  0.48917308     0.06200
H627        H  0.99758362  0.99993155  0.46859032     0.06100
N628        N  0.10992494  0.18734308  0.57483670    -0.27300
N629        N  0.09350965  0.18631291  0.56735911    -0.35100
C630        C  0.08403024  0.20111627  0.57175240     0.01100
C631        C  0.09499366  0.21205186  0.58262892     0.07100
C632        C  0.11134865  0.20280212  0.58425387    -0.06000
H633        H  0.07005825  0.20350818  0.56758432     0.07700
H634        H  0.12346428  0.20697420  0.59166631     0.08900
Cu635      Cu  0.08482333  0.16419883  0.55229896     0.44200
Cu636      Cu  0.12914175  0.16714707  0.57206675     0.42000
Cu637      Cu  0.11584955  0.12627205  0.54705478     0.43900
N638        N  0.07777966  0.14010004  0.53964282    -0.34700
N639        N  0.08878336  0.12619521  0.53766459    -0.28900
C640        C  0.07925956  0.11252679  0.52991797    -0.05000
C641        C  0.06135298  0.11806490  0.52698093     0.07200
C642        C  0.06109968  0.13568719  0.53328190     0.01000
H643        H  0.08481792  0.09932788  0.52726484     0.08600
H644        H  0.04956295  0.14467823  0.53361431     0.07700
N645        N  0.14126934  0.13010265  0.55972594    -0.36100
N646        N  0.14576724  0.14485412  0.56882530    -0.28300
C647        C  0.16242858  0.14275336  0.57626068    -0.03500
C648        C  0.16891440  0.12586721  0.57170869     0.05100
C649        C  0.15512878  0.11825975  0.56110269     0.03200
H650        H  0.16920304  0.15281325  0.58456217     0.08300
H651        H  0.15488371  0.10485307  0.55535164     0.07100
N652        N  0.82720500  0.19054161  0.40254627    -0.27300
N653        N  0.84260846  0.19016700  0.41197798    -0.35100
C654        C  0.85091042  0.20648139  0.41057851     0.01100
C655        C  0.84017534  0.21771884  0.39970862     0.07100
C656        C  0.82525254  0.20698472  0.39493497    -0.06000
H657        H  0.86387868  0.20978455  0.41689901     0.07700
H658        H  0.81368021  0.21072248  0.38657474     0.08900
Cu659      Cu  0.85127504  0.16695422  0.42577748     0.44200
Cu660      Cu  0.80921736  0.16881467  0.40053544     0.42000
Cu661      Cu  0.82059252  0.12700266  0.42295012     0.43900
N662        N  0.85744249  0.14132233  0.43617054    -0.34700
N663        N  0.84680599  0.12681886  0.43453523    -0.28900
C664        C  0.85574240  0.11235742  0.44131056    -0.05000
C665        C  0.87267649  0.11803166  0.44775549     0.07200
C666        C  0.87320800  0.13647988  0.44431620     0.01000
H667        H  0.85031367  0.09869544  0.44149882     0.08600
H668        H  0.88454630  0.14561861  0.44689511     0.07700
N669        N  0.79546245  0.13132990  0.40994964    -0.36100
N670        N  0.79170607  0.14663004  0.40137881    -0.28300
C671        C  0.77484176  0.14552658  0.39411319    -0.03500
C672        C  0.76737568  0.12872016  0.39831514     0.05100
C673        C  0.78089648  0.12009243  0.40845796     0.03200
H674        H  0.76839753  0.15639009  0.38660534     0.08300
H675        H  0.78029177  0.10658445  0.41417328     0.07100
C676        C  0.98545104  0.05047542  0.48517306     0.03100
C677        C  0.96965343  0.05955269  0.47914994    -0.13000
C678        C  0.95379662  0.05001544  0.47374070     0.00600
C679        C  0.95418959  0.03095341  0.47384035    -0.11500
C680        C  0.96997864  0.02150175  0.47922163     0.03100
C681        C  0.98543187  0.03141583  0.48506347    -0.11000
H682        H  0.96986190  0.07416538  0.47827611     0.08700
H683        H  0.94218490  0.02337991  0.46966113     0.06200
H684        H  0.99728971  0.02420635  0.49002822     0.06100
C685        C  0.88754514  0.10683441  0.45560352    -0.05200
C686        C  0.89901782  0.11389996  0.46921818    -0.05200
C687        C  0.91360746  0.10380566  0.47615025    -0.23300
C688        C  0.91733998  0.08663436  0.46921633     0.18900
C689        C  0.90590066  0.07938356  0.45552085     0.16100
C690        C  0.89086846  0.08937071  0.44904381    -0.18400
C691        C  0.90998942  0.06248268  0.44820201    -0.20200
C692        C  0.92543533  0.05301370  0.45410545    -0.12800
C693        C  0.93699461  0.06000224  0.46777927     0.03900
C694        C  0.93255031  0.07680196  0.47546412    -0.24900
H695        H  0.89665443  0.12726870  0.47454574     0.09000
H696        H  0.92221677  0.10960631  0.48665240     0.12600
H697        H  0.88221359  0.08387228  0.43840645     0.12500
H698        H  0.90147132  0.05675771  0.43758669     0.12300
H699        H  0.92850699  0.04036861  0.44758535     0.12800
H700        H  0.94095866  0.08234702  0.48625270     0.14800
C701        C  0.04547190  0.10733832  0.51995954    -0.05200
C702        C  0.02758159  0.11356181  0.52254931    -0.05200
C703        C  0.01248063  0.10366369  0.51635028    -0.23300
C704        C  0.01483907  0.08730840  0.50730049     0.18900
C705        C  0.03266004  0.08086446  0.50442122     0.16100
C706        C  0.04787501  0.09086079  0.51083173    -0.18400
C707        C  0.03489392  0.06454651  0.49516775    -0.20200
C708        C  0.01966071  0.05475768  0.48884998    -0.12800
C709        C  0.00179886  0.06095910  0.49177247     0.03900
C710        C  0.99961830  0.07731356  0.50114321    -0.24900
H711        H  0.02509511  0.12601389  0.52963016     0.09000
H712        H  0.99890419  0.10882615  0.51867601     0.12600
H713        H  0.06151776  0.08586282  0.50857962     0.12500
H714        H  0.04844222  0.05938616  0.49271519     0.12300
H715        H  0.02192304  0.04242121  0.48145579     0.12800
H716        H  0.98603656  0.08221815  0.50391126     0.14800
C717        C  0.89348680  0.91254851  0.51134515    -0.05200
C718        C  0.90429779  0.90500730  0.49778578    -0.05200
C719        C  0.91785513  0.91536374  0.48923030    -0.23300
C720        C  0.92124077  0.93330144  0.49447911     0.18900
C721        C  0.91066221  0.94087694  0.50833701     0.16100
C722        C  0.89663299  0.93059427  0.51642540    -0.18400
C723        C  0.91453752  0.95848630  0.51413938    -0.20200
C724        C  0.92888895  0.96844255  0.50651027    -0.12800
C725        C  0.93944880  0.96130194  0.49243667     0.03900
C726        C  0.93522110  0.94365687  0.48634975    -0.24900
H727        H  0.90209585  0.89113588  0.49364873     0.09000
H728        H  0.92588658  0.90924364  0.47870461     0.12600
H729        H  0.88853946  0.93644173  0.52707317     0.12500
H730        H  0.90672877  0.96444080  0.52492842     0.12300
H731        H  0.93191447  0.98162993  0.51205951     0.12800
H732        H  0.94277972  0.93783869  0.47533707     0.14800
C733        C  0.00265146  0.96341141  0.46521550    -0.05200
C734        C  0.01354061  0.97127773  0.45154728    -0.05200
C735        C  0.02872920  0.96226481  0.44480941    -0.23300
C736        C  0.03316321  0.94493244  0.45119541     0.18900
C737        C  0.02225057  0.93670155  0.46466951     0.16100
C738        C  0.00740003  0.94608868  0.47183930    -0.18400
C739        C  0.02620683  0.91907516  0.47058761    -0.20200
C740        C  0.04067243  0.90961172  0.46305339    -0.12800
C741        C  0.05178900  0.91774821  0.44984380     0.03900
C742        C  0.04809386  0.93554608  0.44411028    -0.24900
H743        H  0.01018642  0.98432046  0.44572192     0.09000
H744        H  0.03679584  0.96872343  0.43433039     0.12600
H745        H  0.99963379  0.93980552  0.48261878     0.12500
H746        H  0.01793921  0.91249774  0.48083695     0.12300
H747        H  0.04329460  0.89593226  0.46769254     0.12800
H748        H  0.05644433  0.94183528  0.43374213     0.14800
C749        C  0.06368392  0.29134286  0.60486148    -0.05200
C750        C  0.05319235  0.28404740  0.59058522    -0.05200
C751        C  0.05689995  0.26691292  0.58382828    -0.23300
C752        C  0.07130789  0.25675039  0.59106359     0.18900
C753        C  0.08189303  0.26381945  0.60551692     0.16100
C754        C  0.07790560  0.28099904  0.61245274    -0.18400
C755        C  0.09645966  0.25368749  0.61254052    -0.20200
C756        C  0.10065361  0.23686880  0.60517025    -0.12800
C757        C  0.09027007  0.22974387  0.59071442     0.03900
C758        C  0.07546195  0.23976963  0.58387671    -0.24900
H759        H  0.04201057  0.29155849  0.58463442     0.09000
H760        H  0.04858566  0.26168524  0.57276786     0.12600
H761        H  0.08619767  0.28650212  0.62339054     0.12500
H762        H  0.10474235  0.25884752  0.62365195     0.12300
H763        H  0.11199869  0.22942667  0.61088460     0.12800
H764        H  0.06737312  0.23460180  0.57263942     0.14800
C765        C  0.02092874  0.42479404  0.56596136    -0.05200
C766        C  0.02357464  0.41811557  0.54839442    -0.05200
C767        C  0.01741643  0.42763081  0.53320479    -0.23300
C768        C  0.00842192  0.44407051  0.53518552     0.18900
C769        C  0.00617504  0.45135393  0.55264911     0.16100
C770        C  0.01258704  0.44173533  0.56797288    -0.18400
C771        C  0.99713315  0.46788174  0.55444065    -0.20200
C772        C  0.98993224  0.47676110  0.53916137    -0.12800
C773        C  0.99174154  0.46935681  0.52176814     0.03900
C774        C  0.00137400  0.45313364  0.51994297    -0.24900
H775        H  0.03034668  0.40538787  0.54626279     0.09000
H776        H  0.01941486  0.42194720  0.51990407     0.12600
H777        H  0.01048998  0.44710453  0.58138290     0.12500
H778        H  0.99530490  0.47375747  0.56767611     0.12300
H779        H  0.98255157  0.48921295  0.54103645     0.12800
H780        H  0.00334554  0.44747510  0.50662383     0.14800
C781        C  0.86940570  0.30039151  0.38312116    -0.05200
C782        C  0.88088566  0.29206195  0.39603302    -0.05200
C783        C  0.87742298  0.27434164  0.40200679    -0.23300
C784        C  0.86234086  0.26458999  0.39525063     0.18900
C785        C  0.85055775  0.27291595  0.38249525     0.16100
C786        C  0.85415222  0.29068506  0.37650354    -0.18400
C787        C  0.83540321  0.26329621  0.37583003    -0.20200
C788        C  0.83206296  0.24551501  0.38153108    -0.12800
C789        C  0.84377553  0.23686382  0.39405887     0.03900
C790        C  0.85890669  0.24664670  0.40094739    -0.24900
H791        H  0.89277580  0.29911432  0.40133968     0.09000
H792        H  0.88660841  0.26823425  0.41181313     0.12600
H793        H  0.84499668  0.29692452  0.36676442     0.12500
H794        H  0.82618248  0.26947433  0.36609684     0.12300
H795        H  0.82030125  0.23856756  0.37587831     0.12800
H796        H  0.86804655  0.24039240  0.41067595     0.14800
C797        C  0.92522045  0.43630365  0.40843703    -0.05200
C798        C  0.91918687  0.45421671  0.40993925    -0.05200
C799        C  0.92661958  0.46568416  0.42317040    -0.23300
C800        C  0.94046201  0.45954276  0.43493409     0.18900
C801        C  0.94706112  0.44177736  0.43304837     0.16100
C802        C  0.93931449  0.43025509  0.41997820    -0.18400
C803        C  0.96125876  0.43576074  0.44432746    -0.20200
C804        C  0.96866427  0.44707560  0.45759516    -0.12800
C805        C  0.96178323  0.46458872  0.46028111     0.03900
C806        C  0.94768997  0.47075732  0.44863609    -0.24900
H807        H  0.90834055  0.45920881  0.40122984     0.09000
H808        H  0.92145049  0.47930715  0.42428110     0.12600
H809        H  0.94431432  0.41657254  0.41876363     0.12500
H810        H  0.96669296  0.42227427  0.44287229     0.12300
H811        H  0.97991165  0.44201208  0.46571528     0.12800
H812        H  0.94201064  0.48408326  0.45041443     0.14800
C813        C  0.09508383  0.79278314  0.38417877    -0.05200
C814        C  0.10475915  0.78596492  0.36940837    -0.05200
C815        C  0.10070160  0.76884634  0.36247448    -0.23300
C816        C  0.08697864  0.75808183  0.37028503     0.18900
C817        C  0.07707741  0.76475993  0.38508308     0.16100
C818        C  0.08107072  0.78210879  0.39184290    -0.18400
C819        C  0.06354114  0.75384690  0.39305130    -0.20200
C820        C  0.06008327  0.73638567  0.38661307    -0.12800
C821        C  0.06992062  0.72954894  0.37195785     0.03900
C822        C  0.08323579  0.74063397  0.36371408    -0.24900
H823        H  0.11545185  0.79391209  0.36304952     0.09000
H824        H  0.10839978  0.76397588  0.35112196     0.12600
H825        H  0.07357385  0.78706155  0.40328466     0.12500
H826        H  0.05578875  0.75872074  0.40436436     0.12300
H827        H  0.04962210  0.72824813  0.39312160     0.12800
H828        H  0.09106060  0.73555795  0.35254986     0.14800
C829        C  0.02782188  0.59002201  0.40232430    -0.05200
C830        C  0.03597306  0.57348853  0.40696817    -0.05200
C831        C  0.02860123  0.56255869  0.42073980    -0.23300
C832        C  0.01279114  0.56788753  0.42983130     0.18900
C833        C  0.00405682  0.58408802  0.42453416     0.16100
C834        C  0.01168399  0.59507032  0.41095164    -0.18400
C835        C  0.98807330  0.58931668  0.43321721    -0.20200
C836        C  0.98120289  0.57904931  0.44758531    -0.12800
C837        C  0.99021739  0.56338982  0.45369842     0.03900
C838        C  0.00582264  0.55762187  0.44440729    -0.24900
H839        H  0.04843162  0.56939135  0.40044543     0.09000
H840        H  0.03544214  0.55013295  0.42450177     0.12600
H841        H  0.00519379  0.60771142  0.40723586     0.12500
H842        H  0.98104681  0.60153815  0.42910710     0.12300
H843        H  0.96887795  0.58351956  0.45410136     0.12800
H844        H  0.01292440  0.54558317  0.44892370     0.14800
C845        C  0.88960073  0.72797771  0.59935292    -0.05200
C846        C  0.89918747  0.73589437  0.58486186    -0.05200
C847        C  0.89362195  0.75236973  0.57730427    -0.23300
C848        C  0.87827210  0.76120438  0.58400217     0.18900
C849        C  0.86843548  0.75331564  0.59845900     0.16100
C850        C  0.87420395  0.73683383  0.60610044    -0.18400
C851        C  0.85297633  0.76204558  0.60501462    -0.20200
C852        C  0.84741625  0.77853225  0.59747367    -0.12800
C853        C  0.85721502  0.78669601  0.58322599     0.03900
C854        C  0.87263050  0.77779762  0.57650735    -0.24900
H855        H  0.91115243  0.72946237  0.57947025     0.09000
H856        H  0.90134870  0.75821070  0.56621800     0.12600
H857        H  0.86652174  0.73080390  0.61711344     0.12500
H858        H  0.84521625  0.75616809  0.61605978     0.12300
H859        H  0.83555087  0.78495643  0.60304573     0.12800
H860        H  0.88027600  0.78368541  0.56540924     0.14800
C861        C  0.94341294  0.59422389  0.57494731    -0.05200
C862        C  0.95254012  0.57816034  0.57957661    -0.05200
C863        C  0.95954416  0.56701829  0.56605090    -0.23300
C864        C  0.95741253  0.57168833  0.54765752     0.18900
C865        C  0.94781620  0.58755222  0.54295217     0.16100
C866        C  0.94090254  0.59861372  0.55653003    -0.18400
C867        C  0.94536678  0.59226562  0.52470497    -0.20200
C868        C  0.95258168  0.58154179  0.51115625    -0.12800
C869        C  0.96257967  0.56590121  0.51547919     0.03900
C870        C  0.96478186  0.56094079  0.53388557    -0.24900
H871        H  0.95465719  0.57442846  0.59364361     0.09000
H872        H  0.96677606  0.55486657  0.56997797     0.12600
H873        H  0.93355006  0.61070025  0.55265077     0.12500
H874        H  0.93787879  0.60430139  0.52088492     0.12300
H875        H  0.95016779  0.58547714  0.49718591     0.12800
H876        H  0.97248020  0.54898263  0.53750798     0.14800
C877        C  0.07232265  0.42000878  0.77399624    -0.05200
C878        C  0.05649220  0.42792194  0.76656738    -0.05200
C879        C  0.05123295  0.42461900  0.74856139    -0.23300
C880        C  0.06163648  0.41323121  0.73766816     0.18900
C881        C  0.07755097  0.40526847  0.74503928     0.16100
C882        C  0.08279307  0.40875534  0.76297385    -0.18400
C883        C  0.08791672  0.39365855  0.73446860    -0.20200
C884        C  0.08238531  0.38960112  0.71685944    -0.12800
C885        C  0.06653556  0.39725467  0.70931497     0.03900
C886        C  0.05631826  0.40936153  0.71968973    -0.24900
H887        H  0.04815306  0.43671386  0.77461869     0.09000
H888        H  0.03896548  0.43084610  0.74321672     0.12600
H889        H  0.09490824  0.40231851  0.76833603     0.12500
H890        H  0.10019135  0.38750675  0.73990206     0.12300
H891        H  0.09061472  0.38045213  0.70907368     0.12800
H892        H  0.04402003  0.41525159  0.71400907     0.14800
C893        C  0.04837337  0.46142041  0.91765807    -0.05200
C894        C  0.05255874  0.45596785  0.93550782    -0.05200
C895        C  0.04324589  0.46311338  0.95014114    -0.23300
C896        C  0.02958963  0.47595002  0.94725684     0.18900
C897        C  0.02488738  0.48125511  0.92937191     0.16100
C898        C  0.03422473  0.47385622  0.91465130    -0.18400
C899        C  0.01114636  0.49409343  0.92658287    -0.20200
C900        C  0.00231140  0.50170272  0.94135712    -0.12800
C901        C  0.00708291  0.49666095  0.95918704     0.03900
C902        C  0.02069574  0.48366907  0.96200134    -0.24900
H903        H  0.06312968  0.44615850  0.93823545     0.09000
H904        H  0.04690257  0.45876375  0.96373964     0.12600
H905        H  0.03088086  0.47820188  0.90097584     0.12500
H906        H  0.00733599  0.49835611  0.91300085     0.12300
H907        H  0.99190380  0.51175548  0.93886063     0.12800
H908        H  0.02427138  0.47947844  0.97567816     0.14800
C909        C  0.08841768  0.60480431  0.20154550    -0.05200
C910        C  0.07474349  0.59424603  0.20989077    -0.05200
C911        C  0.07054892  0.59662046  0.22819577    -0.23300
C912        C  0.07976728  0.60977529  0.23849548     0.18900
C913        C  0.09344058  0.62053626  0.23020454     0.16100
C914        C  0.09776269  0.61788755  0.21192075    -0.18400
C915        C  0.10242096  0.63397700  0.24026396    -0.20200
C916        C  0.09769331  0.63700340  0.25824685    -0.12800
C917        C  0.08410956  0.62646576  0.26669969     0.03900
C918        C  0.07536551  0.61261862  0.25680145    -0.24900
H919        H  0.06739947  0.58398000  0.20233696     0.09000
H920        H  0.05998452  0.58824018  0.23426059     0.12600
H921        H  0.10818636  0.62632175  0.20570388     0.12500
H922        H  0.11296355  0.64234528  0.23414171     0.12300
H923        H  0.10475891  0.64761026  0.26559959     0.12800
H924        H  0.06475519  0.60449750  0.26313671     0.14800
C925        C  0.05676044  0.55785750  0.06023875    -0.05200
C926        C  0.06210213  0.56041791  0.04213206    -0.05200
C927        C  0.05176532  0.55328081  0.02790764    -0.23300
C928        C  0.03580720  0.54338623  0.03141310     0.18900
C929        C  0.02998491  0.54092122  0.04946977     0.16100
C930        C  0.04045313  0.54826668  0.06380795    -0.18400
C931        C  0.01389919  0.53101223  0.05279833    -0.20200
C932        C  0.00378481  0.52360671  0.03840269    -0.12800
C933        C  0.00957556  0.52593052  0.02040473     0.03900
C934        C  0.02562084  0.53593499  0.01708518    -0.24900
H935        H  0.07433063  0.56801990  0.03883488     0.09000
H936        H  0.05634226  0.55541913  0.01413492     0.12600
H937        H  0.03614417  0.54615508  0.07766559     0.12500
H938        H  0.00917730  0.52892848  0.06652384     0.12300
H939        H  0.99152316  0.51588030  0.04136188     0.12800
H940        H  0.03007093  0.53816942  0.00328052     0.14800
C941        C  0.89300094  0.63058684  0.71284033    -0.05200
C942        C  0.90059434  0.61558480  0.72190725    -0.05200
C943        C  0.89557582  0.61128240  0.73969153    -0.23300
C944        C  0.88274488  0.62181177  0.74871114     0.18900
C945        C  0.87523203  0.63705484  0.73981356     0.16100
C946        C  0.88047316  0.64139228  0.72207236    -0.18400
C947        C  0.86226211  0.64751864  0.74864335    -0.20200
C948        C  0.85636289  0.64264509  0.76592719    -0.12800
C949        C  0.86342881  0.62731647  0.77483305     0.03900
C950        C  0.87694145  0.61713408  0.76626258    -0.24900
H951        H  0.91042168  0.60712029  0.71527683     0.09000
H952        H  0.90154347  0.59956759  0.74629392     0.12600
H953        H  0.87432305  0.65292672  0.71534586     0.12500
H954        H  0.85643145  0.65931337  0.74205440     0.12300
H955        H  0.84616821  0.65089232  0.77229545     0.12800
H956        H  0.88243733  0.60522462  0.77292150     0.14800
C957        C  0.91254320  0.53235341  0.95658822    -0.05200
C958        C  0.92044878  0.54763687  0.94814277    -0.05200
C959        C  0.91211122  0.55575080  0.93308930    -0.23300
C960        C  0.89549462  0.54898051  0.92633592     0.18900
C961        C  0.88726487  0.53376819  0.93477172     0.16100
C962        C  0.89593533  0.52542160  0.94964805    -0.18400
C963        C  0.87034859  0.52733560  0.92835221    -0.20200
C964        C  0.86149059  0.53614873  0.91398589    -0.12800
C965        C  0.86960877  0.55122389  0.90548818     0.03900
C966        C  0.88677333  0.55741400  0.91154433    -0.24900
H967        H  0.93300019  0.55355618  0.95333426     0.09000
H968        H  0.91852318  0.56750900  0.92691236     0.12600
H969        H  0.88974357  0.51351310  0.95575270     0.12500
H970        H  0.86381609  0.51570890  0.93465049     0.12300
H971        H  0.84828259  0.53114741  0.90945576     0.12800
H972        H  0.89300026  0.56918869  0.90519829     0.14800
C973        C  0.85368196  0.40587363  0.27821073    -0.05200
C974        C  0.83899533  0.39649385  0.27009638    -0.05200
C975        C  0.83330439  0.40069431  0.25245646    -0.23300
C976        C  0.84235236  0.41420381  0.24247889     0.18900
C977        C  0.85712690  0.42375624  0.25047448     0.16100
C978        C  0.86255700  0.41968607  0.26835230    -0.18400
C979        C  0.86641658  0.43699274  0.24032863    -0.20200
C980        C  0.86125494  0.44059227  0.22238356    -0.12800
C981        C  0.84654772  0.43121609  0.21431917     0.03900
C982        C  0.83704934  0.41811281  0.22455354    -0.24900
H983        H  0.83180513  0.38592295  0.27742787     0.09000
H984        H  0.82194848  0.39323098  0.24655109     0.12600
H985        H  0.87401890  0.42689951  0.27436427     0.12500
H986        H  0.87778857  0.44444673  0.24621287     0.12300
H987        H  0.86870638  0.45084412  0.21486266     0.12800
H988        H  0.82582881  0.41060678  0.21845956     0.14800
C989        C  0.88046648  0.47443249  0.07387675    -0.05200
C990        C  0.89472142  0.48619569  0.07917554    -0.05200
C991        C  0.90543353  0.49506428  0.06618775    -0.23300
C992        C  0.90207414  0.49236604  0.04767103     0.18900
C993        C  0.88790474  0.48043571  0.04222779     0.16100
C994        C  0.87733712  0.47150754  0.05530649    -0.18400
C995        C  0.88439775  0.47773062  0.02376332    -0.20200
C996        C  0.89469146  0.48690330  0.01075686    -0.12800
C997        C  0.90879092  0.49883869  0.01595944     0.03900
C998        C  0.91251670  0.50142452  0.03448839    -0.24900
H999        H  0.89743919  0.48880494  0.09333205     0.09000
H1000       H  0.91624877  0.50418299  0.07063895     0.12600
H1001       H  0.86661138  0.46228637  0.05089575     0.12500
H1002       H  0.87361583  0.46854734  0.01936031     0.12300
H1003       H  0.89180855  0.48448328  0.99657379     0.12800
H1004       H  0.92337291  0.51065961  0.03861025     0.14800
C1005       C  0.25336824  0.63880708  0.07815946    -0.05200
C1006       C  0.24580095  0.64901039  0.09218313    -0.05200
C1007       C  0.22867873  0.64459175  0.09921805    -0.23300
C1008       C  0.21865424  0.62991956  0.09234057     0.18900
C1009       C  0.22600717  0.61959796  0.07817812     0.16100
C1010       C  0.24332894  0.62403433  0.07124364    -0.18400
C1011       C  0.21585787  0.60505719  0.07116134    -0.20200
C1012       C  0.19860022  0.60082932  0.07803615    -0.12800
C1013       C  0.19114671  0.61096038  0.09217395     0.03900
C1014       C  0.20137004  0.62547404  0.09932365    -0.24900
H1015       H  0.25319031  0.66032782  0.09797279     0.09000
H1016       H  0.22327632  0.65268025  0.11007621     0.12600
H1017       H  0.24885458  0.61610505  0.06033505     0.12500
H1018       H  0.22124603  0.59695781  0.06030459     0.12300
H1019       H  0.19117484  0.58947359  0.07234922     0.12800
H1020       H  0.19576857  0.63353932  0.11009384     0.14800
C1021       C  0.38511750  0.60010250  0.01980252    -0.05200
C1022       C  0.40105957  0.60420735  0.01008371    -0.05200
C1023       C  0.41136272  0.59038877  0.00248775    -0.23300
C1024       C  0.40596371  0.57223370  0.00461914     0.18900
C1025       C  0.39026009  0.56800457  0.01483254     0.16100
C1026       C  0.37998702  0.58190183  0.02231412    -0.18400
C1027       C  0.38493124  0.54993188  0.01728535    -0.20200
C1028       C  0.39485698  0.53612718  0.00941604    -0.12800
C1029       C  0.41023030  0.54008001  0.99875420     0.03900
C1030       C  0.41583009  0.55825332  0.99658114    -0.24900
H1031       H  0.40532984  0.61811477  0.00795797     0.09000
H1032       H  0.42342379  0.59391057  0.99479462     0.12600
H1033       H  0.36796273  0.57847366  0.03009576     0.12500
H1034       H  0.37303426  0.54646024  0.02525143     0.12300
H1035       H  0.39050244  0.52227756  0.01177814     0.12800
H1036       H  0.42758268  0.56156157  0.98834845     0.14800
C1037       C  0.24484639  0.38508732  0.88280013    -0.05200
C1038       C  0.23633948  0.37633104  0.86807292    -0.05200
C1039       C  0.21842560  0.38040443  0.86298890    -0.23300
C1040       C  0.20857870  0.39326389  0.87257077     0.18900
C1041       C  0.21690654  0.40213460  0.88743108     0.16100
C1042       C  0.23498661  0.39805808  0.89240404    -0.18400
C1043       C  0.20696251  0.41486936  0.89711591    -0.20200
C1044       C  0.18892259  0.41869249  0.89220257    -0.12800
C1045       C  0.18050544  0.40996208  0.87742664     0.03900
C1046       C  0.19051130  0.39730321  0.86759832    -0.24900
H1047       H  0.24356081  0.36644276  0.86024636     0.09000
H1048       H  0.21227256  0.37347531  0.85154808     0.12600
H1049       H  0.24124773  0.40483678  0.90387080     0.12500
H1050       H  0.21311436  0.42184258  0.90852931     0.12300
H1051       H  0.18164148  0.42864836  0.89990389     0.12800
H1052       H  0.18417477  0.39033547  0.85628262     0.14800
C1053       C  0.38034921  0.42738105  0.93420553    -0.05200
C1054       C  0.39703793  0.43155915  0.92586456    -0.05200
C1055       C  0.40825553  0.44544870  0.93252279    -0.23300
C1056       C  0.40314448  0.45514825  0.94787072     0.18900
C1057       C  0.38663593  0.45063067  0.95667142     0.16100
C1058       C  0.37523652  0.43696229  0.94964911    -0.18400
C1059       C  0.38176787  0.45990816  0.97231004    -0.20200
C1060       C  0.39286283  0.47386751  0.97890565    -0.12800
C1061       C  0.40892575  0.47912306  0.96983409     0.03900
C1062       C  0.41411774  0.46941708  0.95442277    -0.24900
H1063       H  0.40120241  0.42436064  0.91391266     0.09000
H1064       H  0.42089683  0.44864251  0.92562699     0.12600
H1065       H  0.36247988  0.43364353  0.95629830     0.12500
H1066       H  0.36931904  0.45642610  0.97941630     0.12300
H1067       H  0.38875932  0.48064545  0.99112171     0.12800
H1068       H  0.42638833  0.47326553  0.94719982     0.14800
C1069       C  0.74578194  0.41969002  0.10328561    -0.05200
C1070       C  0.73101979  0.42891410  0.11070711    -0.05200
C1071       C  0.71328766  0.42582488  0.10426099    -0.23300
C1072       C  0.71000302  0.41307265  0.09064542     0.18900
C1073       C  0.72476859  0.40341930  0.08336209     0.16100
C1074       C  0.74263130  0.40705671  0.08949146    -0.18400
C1075       C  0.72135343  0.39016583  0.07025644    -0.20200
C1076       C  0.70348009  0.38646246  0.06447453    -0.12800
C1077       C  0.68877542  0.39622222  0.07140210     0.03900
C1078       C  0.69217343  0.40962132  0.08440390    -0.24900
H1079       H  0.73327474  0.43876694  0.12127844     0.09000
H1080       H  0.70211727  0.43329103  0.11004788     0.12600
H1081       H  0.75403468  0.39979549  0.08386119     0.12500
H1082       H  0.73248574  0.38254327  0.06460321     0.12300
H1083       H  0.70117339  0.37610347  0.05441942     0.12800
H1084       H  0.68088518  0.41702050  0.09006234     0.14800
C1085       C  0.55351166  0.44095568  0.02834072    -0.05200
C1086       C  0.55793356  0.45886200  0.03312239    -0.05200
C1087       C  0.54810573  0.47337661  0.02595748    -0.23300
C1088       C  0.53362129  0.47032956  0.01382398     0.18900
C1089       C  0.52890632  0.45243187  0.00893112     0.16100
C1090       C  0.53884164  0.43784607  0.01625004    -0.18400
C1091       C  0.51435296  0.44947136  0.99678133    -0.20200
C1092       C  0.50452309  0.46408613  0.98966536    -0.12800
C1093       C  0.50909925  0.48193912  0.99449255     0.03900
C1094       C  0.52373964  0.48491512  0.00659272    -0.24900
H1095       H  0.56896994  0.46174308  0.04253853     0.09000
H1096       H  0.55185657  0.48700266  0.02991126     0.12600
H1097       H  0.53531130  0.42417282  0.01230373     0.12500
H1098       H  0.51055549  0.43586788  0.99280321     0.12300
H1099       H  0.49340139  0.46144265  0.98025130     0.12800
H1100       H  0.52723765  0.49857680  0.01065600     0.14800
C1101       C  0.68141562  0.62801467  0.89037923    -0.05200
C1102       C  0.69064691  0.61544882  0.90148198    -0.05200
C1103       C  0.70820631  0.60979358  0.89723219    -0.23300
C1104       C  0.71693548  0.61658519  0.88178381     0.18900
C1105       C  0.70775742  0.62900182  0.87035359     0.16100
C1106       C  0.69006996  0.63462449  0.87469045    -0.18400
C1107       C  0.71651079  0.63572062  0.85487419    -0.20200
C1108       C  0.73430326  0.63044116  0.85093853    -0.12800
C1109       C  0.74373118  0.61830517  0.86238041     0.03900
C1110       C  0.73477539  0.61130551  0.87773405    -0.24900
H1111       H  0.68448465  0.61014775  0.91369712     0.09000
H1112       H  0.71502895  0.60024540  0.90614548     0.12600
H1113       H  0.68313129  0.64413560  0.86584806     0.12500
H1114       H  0.70966447  0.64518289  0.84588767     0.12300
H1115       H  0.74062825  0.63600743  0.83892910     0.12800
H1116       H  0.74165907  0.60193433  0.88674581     0.14800
C1117       C  0.50698869  0.54547359  0.96959240    -0.05200
C1118       C  0.49976310  0.56262481  0.97334049    -0.05200
C1119       C  0.50914540  0.57847756  0.96834330    -0.23300
C1120       C  0.52605542  0.57754114  0.95966268     0.18900
C1121       C  0.53337654  0.56039509  0.95578008     0.16100
C1122       C  0.52375935  0.54458237  0.96054118    -0.18400
C1123       C  0.55033701  0.55928107  0.94735029    -0.20200
C1124       C  0.56013409  0.57495780  0.94303733    -0.12800
C1125       C  0.55313812  0.59215768  0.94685717     0.03900
C1126       C  0.53590209  0.59336761  0.95499866    -0.24900
H1127       H  0.48701530  0.56382778  0.98049756     0.09000
H1128       H  0.50329540  0.59146927  0.97152143     0.12600
H1129       H  0.52939669  0.53154530  0.95716573     0.12500
H1130       H  0.55612989  0.54624703  0.94421742     0.12300
H1131       H  0.57317606  0.57353700  0.93647936     0.12800
H1132       H  0.53037758  0.60653486  0.95806161     0.14800
C1133       C  0.68682868  0.11077733  0.36290867    -0.05200
C1134       C  0.69543904  0.12498971  0.35338104    -0.05200
C1135       C  0.71272433  0.13129830  0.35854418    -0.23300
C1136       C  0.72192111  0.12347856  0.37331802     0.18900
C1137       C  0.71353237  0.10920692  0.38311042     0.16100
C1138       C  0.69594492  0.10303069  0.37795418    -0.18400
C1139       C  0.72300149  0.10129893  0.39775216    -0.20200
C1140       C  0.74054352  0.10747511  0.40260143    -0.12800
C1141       C  0.74891272  0.12180062  0.39303513     0.03900
C1142       C  0.73941530  0.12970178  0.37836034    -0.24900
H1143       H  0.68875639  0.13142884  0.34192631     0.09000
H1144       H  0.71893399  0.14227584  0.35090709     0.12600
H1145       H  0.68957652  0.09200030  0.38537704     0.12500
H1146       H  0.71686107  0.09032351  0.40543930     0.12300
H1147       H  0.74744099  0.10118176  0.41401817     0.12800
H1148       H  0.74569410  0.14056974  0.37064171     0.14800
C1149       C  0.50287778  0.02674433  0.43078427    -0.05200
C1150       C  0.52078286  0.02332570  0.43698834    -0.08800
C1151       C  0.53593661  0.02917571  0.42705633    -0.23300
C1152       C  0.53356851  0.03835186  0.41052339     0.18900
C1153       C  0.51569830  0.04176018  0.40403738     0.16100
C1154       C  0.50053194  0.03616149  0.41425614    -0.18400
C1155       C  0.51326730  0.05057936  0.38732859    -0.20200
C1156       C  0.52837324  0.05578235  0.37705025    -0.12800
C1157       C  0.54624658  0.05255056  0.38335562     0.03900
C1158       C  0.54874606  0.04395889  0.40025776    -0.24900
H1159       H  0.52315949  0.01579505  0.44941747     0.09000
H1160       H  0.54949888  0.02629548  0.43219084     0.12600
H1161       H  0.48693284  0.03920984  0.40932629     0.12500
H1162       H  0.49969459  0.05331179  0.38213009     0.12300
H1163       H  0.52601343  0.06254956  0.36418630     0.12800
H1164       H  0.56242159  0.04125484  0.40519714     0.14800
C1165       C  0.19137583  0.90736907  0.39204818    -0.05200
C1166       C  0.19829309  0.92312920  0.40029690    -0.05200
C1167       C  0.21536508  0.93028642  0.39541214    -0.23300
C1168       C  0.22578720  0.92191361  0.38207326     0.18900
C1169       C  0.21880487  0.90623103  0.37354083     0.16100
C1170       C  0.20178788  0.89906278  0.37861260    -0.18400
C1171       C  0.22892460  0.89794325  0.36000031    -0.20200
C1172       C  0.24580189  0.90509763  0.35488467    -0.12800
C1173       C  0.25304937  0.92060957  0.36329832     0.03900
C1174       C  0.24297901  0.92893282  0.37701597    -0.24900
H1175       H  0.19063829  0.92980598  0.41070987     0.09000
H1176       H  0.22041877  0.94237553  0.40208729     0.12600
H1177       H  0.19659260  0.88708955  0.37185180     0.12500
H1178       H  0.22376768  0.88589682  0.35331591     0.12300
H1179       H  0.25330132  0.89828328  0.34444493     0.12800
H1180       H  0.24834232  0.94100481  0.38349622     0.14800
C1181       C  0.38888893  0.98747135  0.38606962    -0.05200
C1182       C  0.39835895  0.00286427  0.37982712    -0.05200
C1183       C  0.41255845  0.01045556  0.39007634    -0.23300
C1184       C  0.41789821  0.00247203  0.40655163     0.18900
C1185       C  0.40842008  0.98701292  0.41303990     0.16100
C1186       C  0.39372791  0.97978246  0.40290611    -0.18400
C1187       C  0.41414117  0.97879232  0.42928593    -0.20200
C1188       C  0.42930691  0.98558746  0.43879529    -0.12800
C1189       C  0.43892961  0.00091758  0.43242386     0.03900
C1190       C  0.43285873  0.00944934  0.41637573    -0.24900
H1191       H  0.39474374  0.00905108  0.36694560     0.09000
H1192       H  0.41963949  0.02231271  0.38490788     0.12600
H1193       H  0.38658388  0.96780330  0.40771573     0.12500
H1194       H  0.40715090  0.96687216  0.43442708     0.12300
H1195       H  0.43376333  0.97851541  0.45093087     0.12800
H1196       H  0.43988553  0.02142491  0.41140079     0.14800
C1197       C  0.24448854  0.08109337  0.58633564    -0.05200
C1198       C  0.23595457  0.07472193  0.57045553    -0.05200
C1199       C  0.21932254  0.08198640  0.56446758    -0.23300
C1200       C  0.21100164  0.09588270  0.57415227     0.18900
C1201       C  0.21961087  0.10250233  0.58999938     0.16100
C1202       C  0.23616468  0.09505648  0.59599094    -0.18400
C1203       C  0.21156986  0.11653525  0.59961031    -0.20200
C1204       C  0.19516654  0.12402988  0.59358903    -0.12800
C1205       C  0.18633912  0.11758917  0.57788252     0.03900
C1206       C  0.19432695  0.10337088  0.56825823    -0.24900
H1207       H  0.24200240  0.06395741  0.56277900     0.09000
H1208       H  0.21297402  0.07673648  0.55224328     0.12600
H1209       H  0.24266212  0.10039754  0.60809119     0.12500
H1210       H  0.21798972  0.12175662  0.61181697     0.12300
H1211       H  0.18929480  0.13476078  0.60143574     0.12800
H1212       H  0.18776017  0.09833986  0.55605147     0.14800
C1213       C  0.44462928  0.01751188  0.53223103    -0.05200
C1214       C  0.44825265  0.02579530  0.54897917    -0.05200
C1215       C  0.43406709  0.03023600  0.56054764    -0.23300
C1216       C  0.41590640  0.02654874  0.55560866     0.18900
C1217       C  0.41197326  0.01841022  0.53875933     0.16100
C1218       C  0.42635423  0.01394518  0.52715350    -0.18400
C1219       C  0.39372474  0.01486266  0.53387749    -0.20200
C1220       C  0.37954385  0.01938848  0.54555033    -0.12800
C1221       C  0.38333464  0.02743741  0.56237769     0.03900
C1222       C  0.40164029  0.03094484  0.56726788    -0.24900
H1223       H  0.46213702  0.02898288  0.55310767     0.09000
H1224       H  0.43731527  0.03657272  0.57337147     0.12600
H1225       H  0.42335050  0.00743506  0.51436004     0.12500
H1226       H  0.39041353  0.00860482  0.52103213     0.12300
H1227       H  0.36561484  0.01642404  0.54144559     0.12800
H1228       H  0.40487749  0.03735555  0.58004121     0.14800
C1229       C  0.69011287  0.90174452  0.59443677    -0.05200
C1230       C  0.69765436  0.88660496  0.60329306    -0.05200
C1231       C  0.71533343  0.88101359  0.59956830    -0.23300
C1232       C  0.72599454  0.89049886  0.58698343     0.18900
C1233       C  0.71866245  0.90568798  0.57782940     0.16100
C1234       C  0.70065398  0.91114305  0.58148047    -0.18400
C1235       C  0.72959800  0.91519050  0.56538641    -0.20200
C1236       C  0.74753831  0.90968954  0.56207044    -0.12800
C1237       C  0.75490484  0.89450143  0.57105724     0.03900
C1238       C  0.74391380  0.88503322  0.58353741    -0.24900
H1239       H  0.68982769  0.87893524  0.61310170     0.09000
H1240       H  0.72072470  0.86927300  0.60666659     0.12600
H1241       H  0.69504455  0.92291162  0.57461466     0.12500
H1242       H  0.72428739  0.92691947  0.55822023     0.12300
H1243       H  0.75554557  0.91725713  0.55233645     0.12800
H1244       H  0.74929856  0.87343188  0.59083638     0.14800
C1245       C  0.55614171  0.97102553  0.57054309    -0.05200
C1246       C  0.54662788  0.98498011  0.57900488    -0.05200
C1247       C  0.53288588  0.99431238  0.56977584    -0.23300
C1248       C  0.52807783  0.98959162  0.55202760     0.18900
C1249       C  0.53769621  0.97575298  0.54323263     0.16100
C1250       C  0.55192688  0.96675101  0.55245279    -0.18400
C1251       C  0.53247457  0.97080807  0.52562110    -0.20200
C1252       C  0.51755308  0.97907681  0.51704197    -0.12800
C1253       C  0.50770602  0.99268676  0.52579200     0.03900
C1254       C  0.51344430  0.99813127  0.54317162    -0.24900
H1255       H  0.54975963  0.98860192  0.59286444     0.09000
H1256       H  0.52566294  0.00492703  0.57672636     0.12600
H1257       H  0.55911317  0.95586980  0.54587615     0.12500
H1258       H  0.53962703  0.96016679  0.51864532     0.12300
H1259       H  0.51340782  0.97440634  0.50377480     0.12800
H1260       H  0.50631478  0.00888253  0.55000649     0.14800
C1261       C  0.36011370  0.80657915  0.08809773    -0.05200
C1262       C  0.34363338  0.79868040  0.09388990    -0.05200
C1263       C  0.33970776  0.78056148  0.09053122    -0.23300
C1264       C  0.35221854  0.76989256  0.08135286     0.18900
C1265       C  0.36881343  0.77756004  0.07527825     0.16100
C1266       C  0.37264241  0.79596749  0.07858002    -0.18400
C1267       C  0.38124358  0.76659495  0.06616813    -0.20200
C1268       C  0.37715312  0.74828944  0.06303806    -0.12800
C1269       C  0.36055857  0.74062499  0.06895215     0.03900
C1270       C  0.34826782  0.75164053  0.07822409    -0.24900
H1271       H  0.33361454  0.80655164  0.10097177     0.09000
H1272       H  0.32688071  0.77487722  0.09518084     0.12600
H1273       H  0.38543659  0.80187500  0.07412445     0.12500
H1274       H  0.39408277  0.77216748  0.06143951     0.12300
H1275       H  0.38694291  0.74022719  0.05587362     0.12800
H1276       H  0.33551769  0.74615450  0.08316061     0.14800
C1277       C  0.34818650  0.91386497  0.18693763    -0.05200
C1278       C  0.33468309  0.90390615  0.19620113    -0.05200
C1279       C  0.33077791  0.90757602  0.21425123    -0.23300
C1280       C  0.34031961  0.92125000  0.22345653     0.18900
C1281       C  0.35366417  0.93161888  0.21425825     0.16100
C1282       C  0.35743253  0.92794749  0.19603820    -0.18400
C1283       C  0.36323538  0.94524137  0.22356797    -0.20200
C1284       C  0.35980628  0.94838179  0.24187630    -0.12800
C1285       C  0.34666550  0.93801815  0.25121762     0.03900
C1286       C  0.33689202  0.92453020  0.24177698    -0.24900
H1287       H  0.32712458  0.89318320  0.18955357     0.09000
H1288       H  0.32040438  0.89954812  0.22108453     0.12600
H1289       H  0.36794667  0.93574003  0.18917469     0.12500
H1290       H  0.37350234  0.95339116  0.21672282     0.12300
H1291       H  0.36742859  0.95897439  0.24866269     0.12800
H1292       H  0.32680866  0.91625142  0.24870478     0.14800
C1293       C  0.44175695  0.99799137  0.02350629    -0.05200
C1294       C  0.43029445  0.00421248  0.03724656    -0.05200
C1295       C  0.42171795  0.99207012  0.04907239    -0.23300
C1296       C  0.42447307  0.97342961  0.04742288     0.18900
C1297       C  0.43577124  0.96696526  0.03353567     0.16100
C1298       C  0.44428280  0.97926872  0.02160796    -0.18400
C1299       C  0.43848805  0.94830527  0.03192526    -0.20200
C1300       C  0.43007925  0.93617525  0.04393340    -0.12800
C1301       C  0.41884113  0.94244393  0.05782838     0.03900
C1302       C  0.41612956  0.96117419  0.05946904    -0.24900
H1303       H  0.42794870  0.01856129  0.03883452     0.09000
H1304       H  0.41303562  0.99726136  0.05955441     0.12600
H1305       H  0.45318835  0.97433066  0.01117630     0.12500
H1306       H  0.44713279  0.94309722  0.02142282     0.12300
H1307       H  0.43256109  0.92185808  0.04240661     0.12800
H1308       H  0.40738705  0.96626135  0.06993836     0.14800
C1309       C  0.58099075  0.22975627  0.07925202    -0.05200
C1310       C  0.59820764  0.23674604  0.08422400    -0.05200
C1311       C  0.60326109  0.25439327  0.07944577    -0.23300
C1312       C  0.59104830  0.26549535  0.06987581     0.18900
C1313       C  0.57371565  0.25861304  0.06471758     0.16100
C1314       C  0.56889074  0.24068789  0.06920872    -0.18400
C1315       C  0.56137917  0.26992103  0.05552117    -0.20200
C1316       C  0.56608612  0.28793169  0.05167417    -0.12800
C1317       C  0.58330243  0.29489163  0.05671857     0.03900
C1318       C  0.59577451  0.28347173  0.06570810    -0.24900
H1319       H  0.60781524  0.22852782  0.09181125     0.09000
H1320       H  0.61661342  0.25944735  0.08348729     0.12600
H1321       H  0.55550706  0.23548524  0.06546315     0.12500
H1322       H  0.54801457  0.26490020  0.05148427     0.12300
H1323       H  0.55627256  0.29637487  0.04463923     0.12800
H1324       H  0.60900651  0.28864768  0.06994565     0.14800
C1325       C  0.58064358  0.12700379  0.18721950    -0.05200
C1326       C  0.59831685  0.13146060  0.19340597    -0.05200
C1327       C  0.60432039  0.12595630  0.21059418    -0.23300
C1328       C  0.59267177  0.11609054  0.22203653     0.18900
C1329       C  0.57484998  0.11158791  0.21599112     0.16100
C1330       C  0.56899922  0.11692942  0.19858342    -0.18400
C1331       C  0.56313866  0.10193871  0.22752031    -0.20200
C1332       C  0.56898953  0.09681696  0.24487772    -0.12800
C1333       C  0.58672200  0.10116768  0.25110409     0.03900
C1334       C  0.59851308  0.11078942  0.23945688    -0.24900
H1335       H  0.60761340  0.13905092  0.18486222     0.09000
H1336       H  0.61804918  0.12951379  0.21497458     0.12600
H1337       H  0.55527421  0.11355476  0.19404317     0.12500
H1338       H  0.54939028  0.09843088  0.22315669     0.12300
H1339       H  0.55946482  0.08955118  0.25340809     0.12800
H1340       H  0.61223696  0.11425046  0.24386629     0.14800
C1341       C  0.47779208  0.05568992  0.01711831    -0.05200
C1342       C  0.49345806  0.06371198  0.00938471    -0.05200
C1343       C  0.50282229  0.07779610  0.01810987    -0.23300
C1344       C  0.49711718  0.08381397  0.03506624     0.18900
C1345       C  0.48140886  0.07598151  0.04298091     0.16100
C1346       C  0.47157914  0.06246072  0.03375147    -0.18400
C1347       C  0.47612015  0.08133955  0.06031465    -0.20200
C1348       C  0.48663843  0.09391570  0.06994644    -0.12800
C1349       C  0.50220628  0.10185286  0.06217463     0.03900
C1350       C  0.50718929  0.09705975  0.04453755    -0.24900
H1351       H  0.49895159  0.05877771  0.99683353     0.09000
H1352       H  0.51490755  0.08352813  0.01188911     0.12600
H1353       H  0.45928747  0.05702418  0.03980195     0.12500
H1354       H  0.46417759  0.07541592  0.06663053     0.12300
H1355       H  0.48259792  0.09748955  0.08352160     0.12800
H1356       H  0.51933444  0.10298458  0.03858824     0.14800
C1357       C  0.54784152  0.79173006  0.87012308    -0.05200
C1358       C  0.53992587  0.78522593  0.88624326    -0.05200
C1359       C  0.54337122  0.76765540  0.89257592    -0.23300
C1360       C  0.55489600  0.75620809  0.88297537     0.18900
C1361       C  0.56263446  0.76245580  0.86659509     0.16100
C1362       C  0.55900001  0.78003692  0.86024654    -0.18400
C1363       C  0.57424746  0.75116399  0.85697799    -0.20200
C1364       C  0.57866214  0.73408349  0.86380918    -0.12800
C1365       C  0.57145237  0.72780439  0.88031500     0.03900
C1366       C  0.55919179  0.73882331  0.88966584    -0.24900
H1367       H  0.53109962  0.79371045  0.89410875     0.09000
H1368       H  0.53723492  0.76312676  0.90511146     0.12600
H1369       H  0.56527786  0.78464670  0.84783754     0.12500
H1370       H  0.58018841  0.75566079  0.84433523     0.12300
H1371       H  0.58785282  0.72579480  0.85612235     0.12800
H1372       H  0.55356675  0.73419208  0.90240562     0.14800
C1373       C  0.55255594  0.89164795  0.75890937    -0.05200
C1374       C  0.54193576  0.90386255  0.74869844    -0.05200
C1375       C  0.54701897  0.90894664  0.73115287    -0.23300
C1376       C  0.56291792  0.90202426  0.72349706     0.18900
C1377       C  0.57360470  0.88962357  0.73354907     0.16100
C1378       C  0.56833069  0.88444924  0.75110434    -0.18400
C1379       C  0.58953506  0.88276090  0.72596485    -0.20200
C1380       C  0.59498270  0.88829435  0.70868774    -0.12800
C1381       C  0.58461874  0.90080045  0.69854408     0.03900
C1382       C  0.56842579  0.90747367  0.70607271    -0.24900
H1383       H  0.52960156  0.90946664  0.75421501     0.09000
H1384       H  0.53859025  0.91840716  0.72363546     0.12600
H1385       H  0.57676286  0.87513122  0.75878544     0.12500
H1386       H  0.59787880  0.87320076  0.73345152     0.12300
H1387       H  0.60739765  0.88271325  0.70336826     0.12800
H1388       H  0.56020216  0.91710653  0.69859266     0.14800
C1389       C  0.48945859  0.92945019  0.88651005    -0.05200
C1390       C  0.47530564  0.93934374  0.87829441    -0.05200
C1391       C  0.46756838  0.95399135  0.88708240    -0.23300
C1392       C  0.47415716  0.95933113  0.90410623     0.18900
C1393       C  0.48818759  0.94934531  0.91270818     0.16100
C1394       C  0.49555178  0.93421336  0.90398695    -0.18400
C1395       C  0.49500057  0.95508587  0.92956260    -0.20200
C1396       C  0.48845471  0.97090913  0.93745091    -0.12800
C1397       C  0.47476992  0.98117568  0.92878527     0.03900
C1398       C  0.46733979  0.97488538  0.91231973    -0.24900
H1399       H  0.47028812  0.93580761  0.86492329     0.09000
H1400       H  0.45680154  0.96146817  0.88032054     0.12600
H1401       H  0.50656068  0.92674298  0.91035919     0.12500
H1402       H  0.50577249  0.94766429  0.93637257     0.12300
H1403       H  0.49457823  0.97542723  0.95004928     0.12800
H1404       H  0.45648975  0.98231639  0.90563817     0.14800
C1405       C  0.36570713  0.22989069  0.84539525    -0.05200
C1406       C  0.34900409  0.23665299  0.83885176    -0.05200
C1407       C  0.34369145  0.25426046  0.84273826    -0.23300
C1408       C  0.35504665  0.26553680  0.85313942     0.18900
C1409       C  0.37204618  0.25907406  0.85952052     0.16100
C1410       C  0.37723064  0.24122796  0.85572100    -0.18400
C1411       C  0.38345193  0.27054952  0.86970484    -0.20200
C1412       C  0.37781888  0.28803356  0.87399533    -0.12800
C1413       C  0.36065030  0.29438088  0.86821973     0.03900
C1414       C  0.34951277  0.28307586  0.85745957    -0.24900
H1415       H  0.33981524  0.22819436  0.83098923     0.09000
H1416       H  0.33061396  0.25900556  0.83772288     0.12600
H1417       H  0.39023916  0.23623071  0.86066323     0.12500
H1418       H  0.39661453  0.26591296  0.87459063     0.12300
H1419       H  0.38676546  0.29637051  0.88222826     0.12800
H1420       H  0.33640890  0.28777574  0.85252546     0.14800
C1421       C  0.35566461  0.11464590  0.75315661    -0.05200
C1422       C  0.34076084  0.12254083  0.74399618    -0.05200
C1423       C  0.33439699  0.11553101  0.72756514    -0.23300
C1424       C  0.34286831  0.10055127  0.71989255     0.18900
C1425       C  0.35782057  0.09246693  0.72896708     0.16100
C1426       C  0.36403331  0.09947644  0.74554799    -0.18400
C1427       C  0.36647616  0.07764919  0.72117352    -0.20200
C1428       C  0.36054955  0.07104895  0.70442620    -0.12800
C1429       C  0.34571757  0.07899690  0.69525546     0.03900
C1430       C  0.33681362  0.09367423  0.70319353    -0.24900
H1431       H  0.33390321  0.13410335  0.74953252     0.09000
H1432       H  0.32289986  0.12191851  0.72079445     0.12600
H1433       H  0.37564694  0.09329116  0.75228235     0.12500
H1434       H  0.37795798  0.07125205  0.72795785     0.12300
H1435       H  0.36752931  0.05963870  0.69869818     0.12800
H1436       H  0.32547443  0.10007618  0.69618063     0.14800
C1437       C  0.42650471  0.09761055  0.88318276    -0.05200
C1438       C  0.41766467  0.09641595  0.89992302    -0.05200
C1439       C  0.42261182  0.08317967  0.91262154    -0.23300
C1440       C  0.43679893  0.07118576  0.90896050     0.18900
C1441       C  0.44624877  0.07271977  0.89240905     0.16100
C1442       C  0.44085540  0.08575681  0.87948813    -0.18400
C1443       C  0.46077868  0.06106212  0.88902660    -0.20200
C1444       C  0.46561463  0.04773718  0.90170607    -0.12800
C1445       C  0.45584987  0.04557240  0.91793860     0.03900
C1446       C  0.44151589  0.05756184  0.92148616    -0.24900
H1447       H  0.40648974  0.10535814  0.90292972     0.09000
H1448       H  0.41525555  0.08225164  0.92526579     0.12600
H1449       H  0.44778120  0.08671562  0.86659512     0.12500
H1450       H  0.46837640  0.06220323  0.87653969     0.12300
H1451       H  0.47702605  0.03909093  0.89874861     0.12800
H1452       H  0.43368083  0.05604572  0.93379011     0.14800
loop_ 
_geom_bond_atom_site_label_1 
_geom_bond_atom_site_label_2 
_geom_bond_distance 
_geom_bond_site_symmetry_2 
_ccdc_geom_bond_type 
N1            N2   1.320       .  A
N1            C5   1.344       .  A
N1           Cu9   2.070       .  S
N2            C3   1.345       .  A
N2           Cu8   2.075       .  S
C3            C4   1.389       .  A
C3            H6   1.081       .  S
C4            C5   1.387       .  A
C4         C1421   1.486       .  S
C5            H7   1.081       .  S
Cu8          N11   2.076       .  S
Cu9          N19   2.070       .  S
Cu10         N12   2.087       .  S
Cu10         N18   2.087       .  S
N11          N12   1.324       .  A
N11          C15   1.346       .  A
N12          C13   1.347       .  A
C13          C14   1.385       .  A
C13          H16   1.082       .  S
C14          C15   1.382       .  A
C14        C1437   1.476       .  S
C15          H17   1.082       .  S
N18          N19   1.322       .  A
N18          C22   1.349       .  A
N19          C20   1.343       .  A
C20          C21   1.384       .  A
C20          H23   1.082       .  S
C21          C22   1.388       .  A
C21        C1405   1.482       .  S
C22          H24   1.082       .  S
N25          N26   1.320       .  A
N25          C29   1.345       .  A
N25         Cu33   2.076       .  S
N26          C27   1.346       .  A
N26         Cu32   2.076       .  S
C27          C28   1.388       .  A
C27          H30   1.081       .  S
C28          C29   1.388       .  A
C28        C1373   1.487       .  S
C29          H31   1.081       .  S
Cu32         N35   2.076       .  S
Cu33         N43   2.077       .  S
Cu34         N36   2.088       .  S
Cu34         N42   2.088       .  S
N35          N36   1.323       .  A
N35          C39   1.343       .  A
N36          C37   1.350       .  A
C37          C38   1.387       .  A
C37          H40   1.082       .  S
C38          C39   1.383       .  A
C38        C1389   1.481       .  S
C39          H41   1.082       .  S
N42          N43   1.322       .  A
N42          C46   1.347       .  A
N43          C44   1.344       .  A
C44          C45   1.389       .  A
C44          H47   1.081       .  S
C45          C46   1.391       .  A
C45        C1357   1.492       .  S
C46          H48   1.081       .  S
C49          C50   1.406       .  A
C49          C54   1.406       .  A
C49        C1445   1.494       .  S
C50          C51   1.406       .  A
C50          H55   1.083       .  S
C51          C52   1.409       .  A
C51         C108   1.489       .  S
C52          C53   1.408   1_545  A
C52          H56   1.083   1_545  S
C53          C54   1.408   1_565  A
C53        C1397   1.495       .  S
C54          H57   1.082       .  S
N58          N59   1.321       .  A
N58          C62   1.345       .  A
N58         Cu66   2.073       .  S
N59          C60   1.346       .  A
N59         Cu65   2.077       .  S
C60          C61   1.387       .  A
C60          H63   1.082       .  S
C61          C62   1.386       .  A
C61        C1325   1.482       .  S
C62          H64   1.082       .  S
Cu65         N68   2.078       .  S
Cu66         N76   2.073       .  S
Cu67         N69   2.081       .  S
Cu67         N75   2.081       .  S
N68          N69   1.323       .  A
N68          C72   1.344       .  A
N69          C70   1.348       .  A
C70          C71   1.384       .  A
C70          H73   1.082       .  S
C71          C72   1.383       .  A
C71        C1349   1.476       .  S
C72          H74   1.082       .  S
N75          N76   1.322       .  A
N75          C79   1.347       .  A
N76          C77   1.344       .  A
C77          C78   1.384       .  A
C77          H80   1.082       .  S
C78          C79   1.386       .  A
C78        C1309   1.480       .  S
C79          H81   1.082       .  S
N82          N83   1.320       .  A
N82          C86   1.343       .  A
N82         Cu90   2.068       .  S
N83          C84   1.346       .  A
N83         Cu89   2.075       .  S
C84          C85   1.389       .  A
C84          H87   1.081       .  S
C85          C86   1.387       .  A
C85        C1277   1.485       .  S
C86          H88   1.082       .  S
Cu89         N92   2.076       .  S
Cu90        N100   2.068       .  S
Cu91         N93   2.081       .  S
Cu91         N99   2.080       .  S
N92          N93   1.323       .  A
N92          C96   1.344       .  A
N93          C94   1.345       .  A
C94          C95   1.387       .  A
C94          H97   1.081       .  S
C95          C96   1.387       .  A
C95        C1301   1.485       .  S
C96          H98   1.081       .  S
N99         N100   1.321       .  A
N99         C103   1.349       .  A
N100        C101   1.341       .  A
C101        C102   1.384       .  A
C101        H104   1.081       .  S
C102        C103   1.388       .  A
C102       C1261   1.482       .  S
C103        H105   1.082       .  S
C106        C107   1.410   1_554  A
C106        C111   1.408       .  A
C106       C1341   1.500       .  S
C107        C108   1.409       .  A
C107        H112   1.082       .  S
C108        C109   1.406       .  A
C109        C110   1.404   1_556  A
C109        H113   1.084   1_545  S
C110        C111   1.403       .  A
C110       C1293   1.486   1_545  S
C111        H114   1.082       .  S
N115        N116   1.318       .  A
N115        C119   1.344       .  A
N115       Cu123   2.074       .  S
N116        C117   1.346       .  A
N116       Cu122   2.070       .  S
C117        C118   1.390       .  A
C117        H120   1.081       .  S
C118        C119   1.391       .  A
C118       C1381   1.491       .  S
C119        H121   1.081       .  S
Cu122       N125   2.071       .  S
Cu123       N133   2.074       .  S
Cu124       N126   2.095       .  S
Cu124       N132   2.095       .  S
N125        N126   1.324       .  A
N125        C129   1.341       .  A
N126        C127   1.351       .  A
C127        C128   1.388       .  A
C127        H130   1.081       .  S
C128        C129   1.381       .  A
C128       C1245   1.480       .  S
C129        H131   1.082       .  S
N132        N133   1.323       .  A
N132        C136   1.352       .  A
N133        C134   1.341       .  A
C134        C135   1.384       .  A
C134        H137   1.081       .  S
C135        C136   1.391       .  A
C135       C1229   1.486       .  S
C136        H138   1.081       .  S
N139        N140   1.320       .  A
N139        C143   1.344       .  A
N139       Cu147   2.067       .  S
N140        C141   1.345       .  A
N140       Cu146   2.072       .  S
C141        C142   1.387       .  A
C141        H144   1.082       .  S
C142        C143   1.386       .  A
C142       C1429   1.481       .  S
C143        H145   1.081       .  S
Cu146       N149   2.073       .  S
Cu147       N157   2.067       .  S
Cu148       N150   2.091       .  S
Cu148       N156   2.091       .  S
N149        N150   1.323       .  A
N149        C153   1.343       .  A
N150        C151   1.348       .  A
C151        C152   1.390       .  A
C151        H154   1.082       .  S
C152        C153   1.386       .  A
C152       C1221   1.487       .  S
C153        H155   1.081       .  S
N156        N157   1.322       .  A
N156        C160   1.349       .  A
N157        C158   1.342       .  A
C158        C159   1.384       .  A
C158        H161   1.081       .  S
C159        C160   1.391       .  A
C159       C1197   1.486       .  S
C160        H162   1.082       .  S
C163        C164   1.405       .  A
C163        C168   1.405       .  A
C163       C1213   1.489       .  S
C164        C165   1.407       .  A
C164        H169   1.083       .  S
C165        C166   1.408       .  A
C165        C222   1.488       .  S
C166        C167   1.406       .  A
C166        H170   1.083       .  S
C167        C168   1.406       .  A
C167       C1253   1.494   1_545  S
C168        H171   1.083       .  S
N172        N173   1.319       .  A
N172        C176   1.342       .  A
N172       Cu180   2.063       .  S
N173        C174   1.347       .  A
N173       Cu179   2.079       .  S
C174        C175   1.391       .  A
C174        H177   1.082       .  S
C175        C176   1.386       .  A
C175       C1285   1.487       .  S
C176        H178   1.081       .  S
Cu179       N182   2.080       .  S
Cu180       N190   2.063       .  S
Cu181       N183   2.092       .  S
Cu181       N189   2.091       .  S
N182        N183   1.325       .  A
N182        C186   1.344       .  A
N183        C184   1.349       .  A
C184        C185   1.386       .  A
C184        H187   1.082       .  S
C185        C186   1.382       .  A
C185       C1181   1.479       .  S
C186        H188   1.082       .  S
N189        N190   1.321       .  A
N189        C193   1.350       .  A
N190        C191   1.341       .  A
C191        C192   1.383       .  A
C191        H194   1.082       .  S
C192        C193   1.390       .  A
C192       C1173   1.484       .  S
C193        H195   1.082       .  S
N196        N197   1.319       .  A
N196        C200   1.346       .  A
N196       Cu204   2.078       .  S
N197        C198   1.344       .  A
N197       Cu203   2.066       .  S
C198        C199   1.389       .  A
C198        H201   1.081       .  S
C199        C200   1.391       .  A
C199       C1333   1.490       .  S
C200        H202   1.081       .  S
Cu203       N206   2.067       .  S
Cu204       N214   2.079       .  S
Cu205       N207   2.101       .  S
Cu205       N213   2.101       .  S
N206        N207   1.323       .  A
N206        C210   1.342       .  A
N207        C208   1.351       .  A
C208        C209   1.391       .  A
C208        H211   1.082       .  S
C209        C210   1.383       .  A
C209       C1157   1.485       .  S
C210        H212   1.081       .  S
N213        N214   1.324       .  A
N213        C217   1.352       .  A
N214        C215   1.343       .  A
C215        C216   1.386       .  A
C215        H218   1.081       .  S
C216        C217   1.392       .  A
C216       C1133   1.490       .  S
C217        H219   1.082       .  S
C220        C221   1.408       .  A
C220        C225   1.409       .  A
C220       C1149   1.497       .  S
C221        C222   1.406       .  A
C221        H226   1.082       .  S
C222        C223   1.405       .  A
C223        C224   1.406       .  A
C223        H227   1.083       .  S
C224        C225   1.409       .  A
C224       C1189   1.493       .  S
C225        H228   1.082       .  S
N229        N230   1.318       .  A
N229        C233   1.346       .  A
N229       Cu237   2.072       .  S
N230        C231   1.342       .  A
N230       Cu236   2.059       .  S
C231        C232   1.387       .  A
C231        H234   1.081       .  S
C232        C233   1.390       .  A
C232       C1101   1.485       .  S
C233        H235   1.081       .  S
Cu236       N239   2.059       .  S
Cu237       N247   2.074       .  S
Cu238       N240   2.099       .  S
Cu238       N246   2.100       .  S
N239        N240   1.322       .  A
N239        C243   1.339       .  A
N240        C241   1.352       .  A
C241        C242   1.392       .  A
C241        H244   1.082       .  S
C242        C243   1.382       .  A
C242       C1125   1.485       .  S
C243        H245   1.082       .  S
N246        N247   1.324       .  A
N246        C250   1.351       .  A
N247        C248   1.342       .  A
C248        C249   1.383       .  A
C248        H251   1.081       .  S
C249        C250   1.391       .  A
C249       C1365   1.486       .  S
C250        H252   1.082       .  S
N253        N254   1.320       .  A
N253        C257   1.344       .  A
N253       Cu261   2.065       .  S
N254        C255   1.344       .  A
N254       Cu260   2.070       .  S
C255        C256   1.386       .  A
C255        H258   1.082       .  S
C256        C257   1.385       .  A
C256       C1077   1.478       .  S
C257        H259   1.082       .  S
Cu260       N263   2.070       .  S
Cu261       N271   2.065       .  S
Cu262       N264   2.088       .  S
Cu262       N270   2.088       .  S
N263        N264   1.322       .  A
N263        C267   1.342       .  A
N264        C265   1.349       .  A
C265        C266   1.390       .  A
C265        H268   1.081       .  S
C266        C267   1.385       .  A
C266       C1085   1.486       .  S
C267        H269   1.081       .  S
N270        N271   1.322       .  A
N270        C274   1.348       .  A
N271        C272   1.342       .  A
C272        C273   1.384       .  A
C272        H275   1.081       .  S
C273        C274   1.390       .  A
C273       C1317   1.484       .  S
C274        H276   1.082       .  S
C277        C278   1.407       .  A
C277        C282   1.404       .  A
C277       C1093   1.487       .  S
C278        C279   1.409       .  A
C278        H283   1.083       .  S
C279        C280   1.406       .  A
C279       C1117   1.494       .  S
C280        C281   1.407       .  A
C280        H284   1.083       .  S
C281        C282   1.404       .  A
C281        C336   1.485       .  S
C282        H285   1.083       .  S
N286        N287   1.321       .  A
N286        C290   1.342       .  A
N286       Cu294   2.066       .  S
N287        C288   1.347       .  A
N287       Cu293   2.081       .  S
C288        C289   1.390       .  A
C288        H291   1.081       .  S
C289        C290   1.386       .  A
C289       C1037   1.485       .  S
C290        H292   1.081       .  S
Cu293       N296   2.082       .  S
Cu294       N304   2.066       .  S
Cu295       N297   2.080       .  S
Cu295       N303   2.079       .  S
N296        N297   1.324       .  A
N296        C300   1.346       .  A
N297        C298   1.345       .  A
C298        C299   1.383       .  A
C298        H301   1.082       .  S
C299        C300   1.385       .  A
C299       C1053   1.478       .  S
C300        H302   1.082       .  S
N303        N304   1.320       .  A
N303        C307   1.347       .  A
N304        C305   1.342       .  A
C305        C306   1.387       .  A
C305        H308   1.081       .  S
C306        C307   1.391       .  A
C306       C1413   1.488       .  S
C307        H309   1.081       .  S
N310        N311   1.318       .  A
N310        C314   1.342       .  A
N310       Cu318   2.063       .  S
N311        C312   1.348       .  A
N311       Cu317   2.079       .  S
C312        C313   1.392       .  A
C312        H315   1.082       .  S
C313        C314   1.387       .  A
C313       C1005   1.488       .  S
C314        H316   1.082       .  S
Cu317       N320   2.080       .  S
Cu318       N328   2.063       .  S
Cu319       N321   2.084       .  S
Cu319       N327   2.082       .  S
N320        N321   1.325       .  A
N320        C324   1.342       .  A
N321        C322   1.347       .  A
C322        C323   1.386       .  A
C322        H325   1.082       .  S
C323        C324   1.384       .  A
C323       C1021   1.482       .  S
C324        H326   1.082       .  S
N327        N328   1.320       .  A
N327        C331   1.350       .  A
N328        C329   1.338       .  A
C329        C330   1.386       .  A
C329        H332   1.080       .  S
C330        C331   1.393       .  A
C330       C1269   1.489       .  S
C331        H333   1.081       .  S
C334        C335   1.408       .  A
C334        C339   1.405       .  A
C334       C1061   1.492       .  S
C335        C336   1.408       .  A
C335        H340   1.083       .  S
C336        C337   1.405       .  A
C337        C338   1.403       .  A
C337        H341   1.083       .  S
C338        C339   1.404       .  A
C338       C1029   1.488       .  S
C339        H342   1.083       .  S
N343        N344   1.321       .  A
N343        C347   1.345       .  A
N343       Cu351   2.074       .  S
N344        C345   1.345       .  A
N344       Cu350   2.066       .  S
C345        C346   1.382       .  A
C345        H348   1.082       .  S
C346        C347   1.384       .  A
C346       C1069   1.472       .  S
C347        H349   1.082       .  S
Cu350       N353   2.067       .  S
Cu351       N361   2.075       .  S
Cu352       N354   2.080       .  S
Cu352       N360   2.080       .  S
N353        N354   1.321       .  A
N353        C357   1.341       .  A
N354        C355   1.347       .  A
C355        C356   1.389       .  A
C355        H358   1.082       .  S
C356        C357   1.386       .  A
C356        C989   1.485       .  S
C357        H359   1.081       .  S
N360        N361   1.323       .  A
N360        C364   1.346       .  A
N361        C362   1.345       .  A
C362        C363   1.385       .  A
C362        H365   1.082       .  S
C363        C364   1.387       .  A
C363        C981   1.483       .  S
C364        H366   1.082       .  S
N367        N368   1.319       .  A
N367        C371   1.344       .  A
N367       Cu375   2.069       .  S
N368        C369   1.344       .  A
N368       Cu374   2.071       .  S
C369        C370   1.390       .  A
C369        H372   1.081       .  S
C370        C371   1.389       .  A
C370       C1109   1.488       .  S
C371        H373   1.081       .  S
Cu374       N377   2.071       .  S
Cu375       N385   2.069       .  S
Cu376       N378   2.082       .  S
Cu376       N384   2.082       .  S
N377        N378   1.323       .  A
N377        C381   1.344       .  A
N378        C379   1.347       .  A
C379        C380   1.386       .  A
C379        H382   1.082       .  S
C380        C381   1.382       .  A
C380        C965   1.476       .  S
C381        H383   1.082       .  S
N384        N385   1.322       .  A
N384        C388   1.348       .  A
N385        C386   1.342       .  A
C386        C387   1.384       .  A
C386        H389   1.081       .  S
C387        C388   1.388       .  A
C387        C949   1.483       .  S
C388        H390   1.081       .  S
C391        C392   1.407       .  A
C391        C396   1.406       .  A
C391        C957   1.491       .  S
C392        C393   1.406   1_556  A
C392        H397   1.083       .  S
C393        C394   1.403       .  A
C393        C997   1.481       .  S
C394        C395   1.401   1_554  A
C394        H398   1.084       .  S
C395        C396   1.403       .  A
C395        C452   1.478       .  S
C396        H399   1.083       .  S
N400        N401   1.319       .  A
N400        C404   1.349       .  A
N400       Cu408   2.088       .  S
N401        C402   1.343       .  A
N401       Cu407   2.062       .  S
C402        C403   1.385       .  A
C402        H405   1.082       .  S
C403        C404   1.392       .  A
C403       C1013   1.487       .  S
C404        H406   1.082       .  S
Cu407       N410   2.062       .  S
Cu408       N418   2.090       .  S
Cu409       N411   2.095       .  S
Cu409       N417   2.097       .  S
N410        N411   1.321       .  A
N410        C414   1.339       .  A
N411        C412   1.352       .  A
C412        C413   1.393       .  A
C412        H415   1.081       .  S
C413        C414   1.384       .  A
C413        C925   1.487       .  S
C414        H416   1.081       .  S
N417        N418   1.325       .  A
N417        C421   1.349       .  A
N418        C419   1.346       .  A
C419        C420   1.387       .  A
C419        H422   1.081       .  S
C420        C421   1.389       .  A
C420        C909   1.491       .  S
C421        H423   1.082       .  S
N424        N425   1.318       .  A
N424        C428   1.345       .  A
N424       Cu432   2.071       .  S
N425        C426   1.343       .  A
N425       Cu431   2.061       .  S
C426        C427   1.386       .  A
C426        H429   1.081       .  S
C427        C428   1.389       .  A
C427       C1045   1.483       .  S
C428        H430   1.081       .  S
Cu431       N434   2.062       .  S
Cu432       N442   2.073       .  S
Cu433       N435   2.092       .  S
Cu433       N441   2.092       .  S
N434        N435   1.322       .  A
N434        C438   1.340       .  A
N435        C436   1.350       .  A
C436        C437   1.390       .  A
C436        H439   1.081       .  S
C437        C438   1.382       .  A
C437        C893   1.483       .  S
C438        H440   1.081       .  S
N441        N442   1.323       .  A
N441        C445   1.350       .  A
N442        C443   1.341       .  A
C443        C444   1.386       .  A
C443        H446   1.081       .  S
C444        C445   1.392       .  A
C444        C877   1.490       .  S
C445        H447   1.081       .  S
C448        C449   1.409   1_654  A
C448        C453   1.406       .  A
C448        C933   1.489   1_655  S
C449        C450   1.406   1_455  A
C449        H454   1.083       .  S
C450        C451   1.401       .  A
C450        C901   1.484   1_655  S
C451        C452   1.402       .  A
C451        H455   1.084       .  S
C452        C453   1.404   1_556  A
C453        H456   1.084       .  S
N457        N458   1.319       .  A
N457        C461   1.345       .  A
N457       Cu465   2.071       .  S
N458        C459   1.345       .  A
N458       Cu464   2.069       .  S
C459        C460   1.387       .  A
C459        H462   1.082       .  S
C460        C461   1.388       .  A
C460        C845   1.484       .  S
C461        H463   1.081       .  S
Cu464       N467   2.069       .  S
Cu465       N475   2.073       .  S
Cu466       N468   2.093       .  S
Cu466       N474   2.093       .  S
N467        N468   1.322       .  A
N467        C471   1.340       .  A
N468        C469   1.351       .  A
C469        C470   1.391       .  A
C469        H472   1.082       .  S
C470        C471   1.384       .  A
C470        C861   1.487       .  S
C471        H473   1.081       .  S
N474        N475   1.323       .  A
N474        C478   1.348       .  A
N475        C476   1.343       .  A
C476        C477   1.385       .  A
C476        H479   1.081       .  S
C477        C478   1.390       .  A
C477        C941   1.488       .  S
C478        H480   1.082       .  S
N481        N482   1.320       .  A
N481        C485   1.346       .  A
N481       Cu489   2.078       .  S
N482        C483   1.346       .  A
N482       Cu488   2.073       .  S
C483        C484   1.388       .  A
C483        H486   1.081       .  S
C484        C485   1.389       .  A
C484        C821   1.486       .  S
C485        H487   1.082       .  S
Cu488       N491   2.074       .  S
Cu489       N499   2.079       .  S
Cu490       N492   2.092       .  S
Cu490       N498   2.093       .  S
N491        N492   1.324       .  A
N491        C495   1.343       .  A
N492        C493   1.350       .  A
C493        C494   1.387       .  A
C493        H496   1.082       .  S
C494        C495   1.381       .  A
C494        C829   1.478       .  S
C495        H497   1.082       .  S
N498        N499   1.324       .  A
N498        C502   1.351       .  A
N499        C500   1.343       .  A
C500        C501   1.384       .  A
C500        H503   1.082       .  S
C501        C502   1.389       .  A
C501        C917   1.485       .  S
C502        H504   1.082       .  S
C505        C506   1.405       .  A
C505        C510   1.407       .  A
C505        C837   1.490       .  S
C506        C507   1.406       .  A
C506        H511   1.083       .  S
C507        C508   1.408       .  A
C507        C564   1.483       .  S
C508        C509   1.404       .  A
C508        H512   1.083       .  S
C509        C510   1.407       .  A
C509        C869   1.494       .  S
C510        H513   1.083       .  S
N514        N515   1.321       .  A
N514        C518   1.345       .  A
N514       Cu522   2.075       .  S
N515        C516   1.347       .  A
N515       Cu521   2.081       .  S
C516        C517   1.389       .  A
C516        H519   1.081       .  S
C517        C518   1.388       .  A
C517        C781   1.488       .  S
C518        H520   1.081       .  S
Cu521       N524   2.081       .  S
Cu522       N532   2.075       .  S
Cu523       N525   2.086       .  S
Cu523       N531   2.086       .  S
N524        N525   1.323       .  A
N524        C528   1.345       .  A
N525        C526   1.349       .  A
C526        C527   1.388       .  A
C526        H529   1.082       .  S
C527        C528   1.385       .  A
C527        C797   1.485       .  S
C528        H530   1.082       .  S
N531        N532   1.323       .  A
N531        C535   1.347       .  A
N532        C533   1.344       .  A
C533        C534   1.385       .  A
C533        H536   1.082       .  S
C534        C535   1.388       .  A
C534        C973   1.483       .  S
C535        H537   1.082       .  S
N538        N539   1.318       .  A
N538        C542   1.349       .  A
N538       Cu546   2.079       .  S
N539        C540   1.341       .  A
N539       Cu545   2.058       .  S
C540        C541   1.385       .  A
C540        H543   1.082       .  S
C541        C542   1.391       .  A
C541        C749   1.484       .  S
C542        H544   1.081       .  S
Cu545       N548   2.057       .  S
Cu546       N556   2.081       .  S
Cu547       N549   2.094       .  S
Cu547       N555   2.096       .  S
N548        N549   1.321       .  A
N548        C552   1.338       .  A
N549        C550   1.352       .  A
C550        C551   1.393       .  A
C550        H553   1.081       .  S
C551        C552   1.382       .  A
C551        C765   1.486       .  S
C552        H554   1.081       .  S
N555        N556   1.326       .  A
N555        C559   1.351       .  A
N556        C557   1.342       .  A
C557        C558   1.382       .  A
C557        H560   1.082       .  S
C558        C559   1.387       .  A
C558        C885   1.481       .  S
C559        H561   1.082       .  S
C562        C563   1.402       .  A
C562        C567   1.407       .  A
C562        C773   1.491       .  S
C563        C564   1.403       .  A
C563        H568   1.083       .  S
C564        C565   1.408       .  A
C565        C566   1.410       .  A
C565        H569   1.082       .  S
C566        C567   1.411       .  A
C566        C805   1.501       .  S
C567        H570   1.082       .  S
N571        N572   1.321       .  A
N571        C575   1.345       .  A
N571       Cu579   2.076       .  S
N572        C573   1.347       .  A
N572       Cu578   2.079       .  S
C573        C574   1.389       .  A
C573        H576   1.082       .  S
C574        C575   1.388       .  A
C574        C813   1.487       .  S
C575        H577   1.081       .  S
Cu578       N581   2.079       .  S
Cu579       N589   2.076       .  S
Cu580       N582   2.089       .  S
Cu580       N588   2.089       .  S
N581        N582   1.324       .  A
N581        C585   1.345       .  A
N582        C583   1.349       .  A
C583        C584   1.387       .  A
C583        H586   1.082       .  S
C584        C585   1.384       .  A
C584        C741   1.482       .  S
C585        H587   1.082       .  S
N588        N589   1.322       .  A
N588        C592   1.349       .  A
N589        C590   1.343       .  A
C590        C591   1.387       .  A
C590        H593   1.081       .  S
C591        C592   1.390       .  A
C591       C1165   1.488       .  S
C592        H594   1.081       .  S
N595        N596   1.320       .  A
N595        C599   1.345       .  A
N595       Cu603   2.076       .  S
N596        C597   1.345       .  A
N596       Cu602   2.079       .  S
C597        C598   1.390       .  A
C597        H600   1.081       .  S
C598        C599   1.389       .  A
C598        C853   1.490       .  S
C599        H601   1.081       .  S
Cu602       N605   2.080       .  S
Cu603       N613   2.076       .  S
Cu604       N606   2.093       .  S
Cu604       N612   2.093       .  S
N605        N606   1.324       .  A
N605        C609   1.346       .  A
N606        C607   1.348       .  A
C607        C608   1.387       .  A
C607        H610   1.082       .  S
C608        C609   1.384       .  A
C608        C717   1.483       .  S
C609        H611   1.082       .  S
N612        N613   1.322       .  A
N612        C616   1.350       .  A
N613        C614   1.343       .  A
C614        C615   1.388       .  A
C614        H617   1.081       .  S
C615        C616   1.392       .  A
C615       C1237   1.493       .  S
C616        H618   1.082       .  S
C619        C620   1.411       .  A
C619        C624   1.410       .  A
C619        C733   1.503   1_655  S
C620        C621   1.410       .  A
C620        H625   1.079       .  S
C621        C622   1.411       .  A
C621        C725   1.504       .  S
C622        C623   1.407   1_565  A
C622        H626   1.081       .  S
C623        C624   1.408   1_545  A
C623        C680   1.497       .  S
C624        H627   1.082       .  S
N628        N629   1.320       .  A
N628        C632   1.346       .  A
N628       Cu636   2.074       .  S
N629        C630   1.345       .  A
N629       Cu635   2.077       .  S
C630        C631   1.389       .  A
C630        H633   1.081       .  S
C631        C632   1.389       .  A
C631        C757   1.488       .  S
C632        H634   1.082       .  S
Cu635       N638   2.077       .  S
Cu636       N646   2.075       .  S
Cu637       N639   2.094       .  S
Cu637       N645   2.093       .  S
N638        N639   1.322       .  A
N638        C642   1.343       .  A
N639        C640   1.350       .  A
C640        C641   1.392       .  A
C640        H643   1.081       .  S
C641        C642   1.388       .  A
C641        C701   1.493       .  S
C642        H644   1.081       .  S
N645        N646   1.323       .  A
N645        C649   1.349       .  A
N646        C647   1.343       .  A
C647        C648   1.385       .  A
C647        H650   1.082       .  S
C648        C649   1.389       .  A
C648       C1205   1.486       .  S
C649        H651   1.082       .  S
N652        N653   1.320       .  A
N652        C656   1.343       .  A
N652       Cu660   2.073       .  S
N653        C654   1.349       .  A
N653       Cu659   2.089       .  S
C654        C655   1.393       .  A
C654        H657   1.081       .  S
C655        C656   1.389       .  A
C655        C789   1.494       .  S
C656        H658   1.080       .  S
Cu659       N662   2.090       .  S
Cu660       N670   2.073       .  S
Cu661       N663   2.094       .  S
Cu661       N669   2.093       .  S
N662        N663   1.325       .  A
N662        C666   1.347       .  A
N663        C664   1.349       .  A
C664        C665   1.387       .  A
C664        H667   1.082       .  S
C665        C666   1.385       .  A
C665        C685   1.484       .  S
C666        H668   1.082       .  S
N669        N670   1.321       .  A
N669        C673   1.350       .  A
N670        C671   1.344       .  A
C671        C672   1.387       .  A
C671        H674   1.081       .  S
C672        C673   1.392       .  A
C672       C1141   1.491       .  S
C673        H675   1.081       .  S
C676        C677   1.409       .  A
C676        C681   1.409       .  A
C676        C709   1.500   1_655  S
C677        C678   1.409       .  A
C677        H682   1.082       .  S
C678        C679   1.410       .  A
C678        C693   1.501       .  S
C679        C680   1.409       .  A
C679        H683   1.082       .  S
C680        C681   1.409       .  A
C681        H684   1.083       .  S
C685        C686   1.405       .  A
C685        C690   1.407       .  A
C686        C687   1.399       .  A
C686        H695   1.083       .  S
C687        C688   1.403       .  A
C687        H696   1.083       .  S
C688        C694   1.408       .  A
C688        C689   1.413       .  A
C689        C691   1.402       .  A
C689        C690   1.409       .  A
C690        H697   1.084       .  S
C691        C692   1.400       .  A
C691        H698   1.083       .  S
C692        C693   1.410       .  A
C692        H699   1.082       .  S
C693        C694   1.412       .  A
C694        H700   1.083       .  S
C701        C702   1.408       .  A
C701        C706   1.411       .  A
C702        C703   1.396       .  A
C702        H711   1.081       .  S
C703        C704   1.400       .  A
C703        H712   1.084   1_455  S
C704        C710   1.405   1_455  A
C704        C705   1.412       .  A
C705        C707   1.403       .  A
C705        C706   1.411       .  A
C706        H713   1.084       .  S
C707        C708   1.402       .  A
C707        H714   1.084       .  S
C708        C709   1.410       .  A
C708        H715   1.082       .  S
C709        C710   1.410   1_455  A
C710        H716   1.084       .  S
C717        C718   1.405       .  A
C717        C722   1.405       .  A
C718        C719   1.400       .  A
C718        H727   1.083       .  S
C719        C720   1.404       .  A
C719        H728   1.084       .  S
C720        C726   1.409       .  A
C720        C721   1.413       .  A
C721        C723   1.400       .  A
C721        C722   1.407       .  A
C722        H729   1.085       .  S
C723        C724   1.398       .  A
C723        H730   1.084       .  S
C724        C725   1.411       .  A
C724        H731   1.081       .  S
C725        C726   1.414       .  A
C726        H732   1.083       .  S
C733        C734   1.411       .  A
C733        C738   1.412       .  A
C734        C735   1.400       .  A
C734        H743   1.082       .  S
C735        C736   1.401       .  A
C735        H744   1.083       .  S
C736        C742   1.408       .  A
C736        C737   1.412       .  A
C737        C739   1.403       .  A
C737        C738   1.406       .  A
C738        H745   1.082   1_455  S
C739        C740   1.398       .  A
C739        H746   1.083       .  S
C740        C741   1.404       .  A
C740        H747   1.083       .  S
C741        C742   1.407       .  A
C742        H748   1.084       .  S
C749        C750   1.407       .  A
C749        C754   1.407       .  A
C750        C751   1.396       .  A
C750        H759   1.081       .  S
C751        C752   1.400       .  A
C751        H760   1.086       .  S
C752        C758   1.404       .  A
C752        C753   1.414       .  A
C753        C755   1.402       .  A
C753        C754   1.408       .  A
C754        H761   1.085       .  S
C755        C756   1.400       .  A
C755        H762   1.085       .  S
C756        C757   1.408       .  A
C756        H763   1.081       .  S
C757        C758   1.407       .  A
C758        H764   1.085       .  S
C765        C766   1.408       .  A
C765        C770   1.408       .  A
C766        C767   1.392       .  A
C766        H775   1.081       .  S
C767        C768   1.397       .  A
C767        H776   1.084       .  S
C768        C774   1.402       .  A
C768        C769   1.414       .  A
C769        C771   1.403   1_455  A
C769        C770   1.410       .  A
C770        H777   1.083       .  S
C771        C772   1.401       .  A
C771        H778   1.083       .  S
C772        C773   1.409       .  A
C772        H779   1.083       .  S
C773        C774   1.405   1_655  A
C774        H780   1.084       .  S
C781        C782   1.407       .  A
C781        C786   1.408       .  A
C782        C783   1.400       .  A
C782        H791   1.082       .  S
C783        C784   1.403       .  A
C783        H792   1.082       .  S
C784        C790   1.409       .  A
C784        C785   1.412       .  A
C785        C787   1.400       .  A
C785        C786   1.406       .  A
C786        H793   1.082       .  S
C787        C788   1.397       .  A
C787        H794   1.082       .  S
C788        C789   1.409       .  A
C788        H795   1.081       .  S
C789        C790   1.411       .  A
C790        H796   1.081       .  S
C797        C798   1.406       .  A
C797        C802   1.406       .  A
C798        C799   1.402       .  A
C798        H807   1.083       .  S
C799        C800   1.405       .  A
C799        H808   1.083       .  S
C800        C806   1.410       .  A
C800        C801   1.412       .  A
C801        C803   1.399       .  A
C801        C802   1.405       .  A
C802        H809   1.084       .  S
C803        C804   1.396       .  A
C803        H810   1.084       .  S
C804        C805   1.410       .  A
C804        H811   1.082       .  S
C805        C806   1.413       .  A
C806        H812   1.083       .  S
C813        C814   1.406       .  A
C813        C818   1.409       .  A
C814        C815   1.398       .  A
C814        H823   1.083       .  S
C815        C816   1.402       .  A
C815        H824   1.081       .  S
C816        C822   1.406       .  A
C816        C817   1.413       .  A
C817        C819   1.403       .  A
C817        C818   1.407       .  A
C818        H825   1.081       .  S
C819        C820   1.400       .  A
C819        H826   1.081       .  S
C820        C821   1.406       .  A
C820        H827   1.083       .  S
C821        C822   1.407       .  A
C822        H828   1.081       .  S
C829        C830   1.404       .  A
C829        C834   1.404       .  A
C830        C831   1.402       .  A
C830        H839   1.083       .  S
C831        C832   1.406       .  A
C831        H840   1.083       .  S
C832        C838   1.409       .  A
C832        C833   1.414       .  A
C833        C835   1.400   1_455  A
C833        C834   1.402       .  A
C834        H841   1.084       .  S
C835        C836   1.394       .  A
C835        H842   1.084       .  S
C836        C837   1.407       .  A
C836        H843   1.083       .  S
C837        C838   1.410   1_655  A
C838        H844   1.084       .  S
C845        C846   1.406       .  A
C845        C850   1.407       .  A
C846        C847   1.398       .  A
C846        H855   1.082       .  S
C847        C848   1.402       .  A
C847        H856   1.084       .  S
C848        C854   1.405       .  A
C848        C849   1.413       .  A
C849        C851   1.401       .  A
C849        C850   1.405       .  A
C850        H857   1.084       .  S
C851        C852   1.398       .  A
C851        H858   1.084       .  S
C852        C853   1.408       .  A
C852        H859   1.081       .  S
C853        C854   1.409       .  A
C854        H860   1.083       .  S
C861        C862   1.406       .  A
C861        C866   1.406       .  A
C862        C863   1.404       .  A
C862        H871   1.083       .  S
C863        C864   1.406       .  A
C863        H872   1.083       .  S
C864        C870   1.411       .  A
C864        C865   1.412       .  A
C865        C867   1.399       .  A
C865        C866   1.401       .  A
C866        H873   1.083       .  S
C867        C868   1.393       .  A
C867        H874   1.084       .  S
C868        C869   1.407       .  A
C868        H875   1.083       .  S
C869        C870   1.413       .  A
C870        H876   1.083       .  S
C877        C878   1.408       .  A
C877        C882   1.407       .  A
C878        C879   1.403       .  A
C878        H887   1.082       .  S
C879        C880   1.405       .  A
C879        H888   1.083       .  S
C880        C886   1.411       .  A
C880        C881   1.413       .  A
C881        C883   1.399       .  A
C881        C882   1.401       .  A
C882        H889   1.081       .  S
C883        C884   1.393       .  A
C883        H890   1.083       .  S
C884        C885   1.404       .  A
C884        H891   1.083       .  S
C885        C886   1.409       .  A
C886        H892   1.083       .  S
C893        C894   1.407       .  A
C893        C898   1.407       .  A
C894        C895   1.394       .  A
C894        H903   1.082       .  S
C895        C896   1.399       .  A
C895        H904   1.084       .  S
C896        C902   1.403       .  A
C896        C897   1.415       .  A
C897        C899   1.402       .  A
C897        C898   1.408       .  A
C898        H905   1.084       .  S
C899        C900   1.399       .  A
C899        H906   1.083       .  S
C900        C901   1.407       .  A
C900        H907   1.083   1_455  S
C901        C902   1.404       .  A
C902        H908   1.084       .  S
C909        C910   1.407       .  A
C909        C914   1.407       .  A
C910        C911   1.402       .  A
C910        H919   1.082       .  S
C911        C912   1.404       .  A
C911        H920   1.084       .  S
C912        C918   1.411       .  A
C912        C913   1.414       .  A
C913        C915   1.401       .  A
C913        C914   1.406       .  A
C914        H921   1.084       .  S
C915        C916   1.396       .  A
C915        H922   1.085       .  S
C916        C917   1.405       .  A
C916        H923   1.082       .  S
C917        C918   1.408       .  A
C918        H924   1.085       .  S
C925        C926   1.408       .  A
C925        C930   1.409       .  A
C926        C927   1.393       .  A
C926        H935   1.081       .  S
C927        C928   1.398       .  A
C927        H936   1.084       .  S
C928        C934   1.402       .  A
C928        C929   1.414       .  A
C929        C931   1.404       .  A
C929        C930   1.411       .  A
C930        H937   1.083       .  S
C931        C932   1.402       .  A
C931        H938   1.084       .  S
C932        C933   1.408       .  A
C932        H939   1.083   1_455  S
C933        C934   1.405       .  A
C934        H940   1.084       .  S
C941        C942   1.407       .  A
C941        C946   1.407       .  A
C942        C943   1.400       .  A
C942        H951   1.082       .  S
C943        C944   1.403       .  A
C943        H952   1.084       .  S
C944        C950   1.407       .  A
C944        C945   1.413       .  A
C945        C947   1.400       .  A
C945        C946   1.403       .  A
C946        H953   1.083       .  S
C947        C948   1.395       .  A
C947        H954   1.084       .  S
C948        C949   1.406       .  A
C948        H955   1.082       .  S
C949        C950   1.408       .  A
C950        H956   1.084       .  S
C957        C958   1.408       .  A
C957        C962   1.409       .  A
C958        C959   1.397       .  A
C958        H967   1.082       .  S
C959        C960   1.400       .  A
C959        H968   1.083       .  S
C960        C966   1.404       .  A
C960        C961   1.414       .  A
C961        C963   1.402       .  A
C961        C962   1.405       .  A
C962        H969   1.083       .  S
C963        C964   1.398       .  A
C963        H970   1.083       .  S
C964        C965   1.404       .  A
C964        H971   1.083       .  S
C965        C966   1.404       .  A
C966        H972   1.084       .  S
C973        C974   1.406       .  A
C973        C978   1.407       .  A
C974        C975   1.397       .  A
C974        H983   1.082       .  S
C975        C976   1.401       .  A
C975        H984   1.084       .  S
C976        C982   1.404       .  A
C976        C977   1.414       .  A
C977        C979   1.402       .  A
C977        C978   1.406       .  A
C978        H985   1.084       .  S
C979        C980   1.398       .  A
C979        H986   1.084       .  S
C980        C981   1.406       .  A
C980        H987   1.082       .  S
C981        C982   1.407       .  A
C982        H988   1.084       .  S
C989        C990   1.407       .  A
C989        C994   1.406       .  A
C990        C991   1.400       .  A
C990        H999   1.081       .  S
C991        C992   1.403       .  A
C991       H1000   1.086       .  S
C992        C998   1.405       .  A
C992        C993   1.413       .  A
C993        C995   1.401       .  A
C993        C994   1.401       .  A
C994       H1001   1.085       .  S
C995        C996   1.394       .  A
C995       H1002   1.086       .  S
C996        C997   1.405       .  A
C996       H1003   1.082   1_554  S
C997        C998   1.407       .  A
C998       H1004   1.086       .  S
C1005      C1006   1.408       .  A
C1005      C1010   1.408       .  A
C1006      C1007   1.397       .  A
C1006      H1015   1.081       .  S
C1007      C1008   1.400       .  A
C1007      H1016   1.085       .  S
C1008      C1014   1.407       .  A
C1008      C1009   1.414       .  A
C1009      C1011   1.401       .  A
C1009      C1010   1.408       .  A
C1010      H1017   1.084       .  S
C1011      C1012   1.398       .  A
C1011      H1018   1.085       .  S
C1012      C1013   1.408       .  A
C1012      H1019   1.082       .  S
C1013      C1014   1.406       .  A
C1014      H1020   1.084       .  S
C1021      C1022   1.406       .  A
C1021      C1026   1.405       .  A
C1022      C1023   1.400       .  A
C1022      H1031   1.082       .  S
C1023      C1024   1.404       .  A
C1023      H1032   1.083   1_554  S
C1024      C1030   1.406   1_554  A
C1024      C1025   1.413       .  A
C1025      C1027   1.399       .  A
C1025      C1026   1.400       .  A
C1026      H1033   1.083       .  S
C1027      C1028   1.393       .  A
C1027      H1034   1.084       .  S
C1028      C1029   1.407   1_554  A
C1028      H1035   1.083       .  S
C1029      C1030   1.409       .  A
C1030      H1036   1.084       .  S
C1037      C1038   1.408       .  A
C1037      C1042   1.407       .  A
C1038      C1039   1.396       .  A
C1038      H1047   1.081       .  S
C1039      C1040   1.400       .  A
C1039      H1048   1.084       .  S
C1040      C1046   1.404       .  A
C1040      C1041   1.413       .  A
C1041      C1043   1.401       .  A
C1041      C1042   1.405       .  A
C1042      H1049   1.083       .  S
C1043      C1044   1.397       .  A
C1043      H1050   1.084       .  S
C1044      C1045   1.407       .  A
C1044      H1051   1.082       .  S
C1045      C1046   1.405       .  A
C1046      H1052   1.084       .  S
C1053      C1054   1.405       .  A
C1053      C1058   1.404       .  A
C1054      C1055   1.398       .  A
C1054      H1063   1.083       .  S
C1055      C1056   1.402       .  A
C1055      H1064   1.084       .  S
C1056      C1062   1.406       .  A
C1056      C1057   1.414       .  A
C1057      C1059   1.399       .  A
C1057      C1058   1.404       .  A
C1058      H1065   1.085       .  S
C1059      C1060   1.395       .  A
C1059      H1066   1.084       .  S
C1060      C1061   1.409       .  A
C1060      H1067   1.082       .  S
C1061      C1062   1.408       .  A
C1062      H1068   1.084       .  S
C1069      C1070   1.402       .  A
C1069      C1074   1.404       .  A
C1070      C1071   1.396       .  A
C1070      H1079   1.083       .  S
C1071      C1072   1.402       .  A
C1071      H1080   1.085       .  S
C1072      C1078   1.402       .  A
C1072      C1073   1.415       .  A
C1073      C1075   1.402       .  A
C1073      C1074   1.404       .  A
C1074      H1081   1.085       .  S
C1075      C1076   1.398       .  A
C1075      H1082   1.085       .  S
C1076      C1077   1.405       .  A
C1076      H1083   1.082       .  S
C1077      C1078   1.404       .  A
C1078      H1084   1.085       .  S
C1085      C1086   1.407       .  A
C1085      C1090   1.409       .  A
C1086      C1087   1.395       .  A
C1086      H1095   1.082       .  S
C1087      C1088   1.400       .  A
C1087      H1096   1.083       .  S
C1088      C1094   1.403       .  A
C1088      C1089   1.413       .  A
C1089      C1091   1.403   1_554  A
C1089      C1090   1.408       .  A
C1090      H1097   1.083       .  S
C1091      C1092   1.400       .  A
C1091      H1098   1.083       .  S
C1092      C1093   1.407       .  A
C1092      H1099   1.083       .  S
C1093      C1094   1.406   1_556  A
C1094      H1100   1.084       .  S
C1101      C1102   1.407       .  A
C1101      C1106   1.408       .  A
C1102      C1103   1.396       .  A
C1102      H1111   1.081       .  S
C1103      C1104   1.400       .  A
C1103      H1112   1.083       .  S
C1104      C1110   1.403       .  A
C1104      C1105   1.412       .  A
C1105      C1107   1.401       .  A
C1105      C1106   1.405       .  A
C1106      H1113   1.082       .  S
C1107      C1108   1.398       .  A
C1107      H1114   1.083       .  S
C1108      C1109   1.408       .  A
C1108      H1115   1.081       .  S
C1109      C1110   1.408       .  A
C1110      H1116   1.081       .  S
C1117      C1118   1.409       .  A
C1117      C1122   1.407       .  A
C1118      C1119   1.401       .  A
C1118      H1127   1.082       .  S
C1119      C1120   1.403       .  A
C1119      H1128   1.084       .  S
C1120      C1126   1.410       .  A
C1120      C1121   1.414       .  A
C1121      C1123   1.398       .  A
C1121      C1122   1.403       .  A
C1122      H1129   1.084       .  S
C1123      C1124   1.393       .  A
C1123      H1130   1.084       .  S
C1124      C1125   1.407       .  A
C1124      H1131   1.082       .  S
C1125      C1126   1.408       .  A
C1126      H1132   1.084       .  S
C1133      C1134   1.407       .  A
C1133      C1138   1.411       .  A
C1134      C1135   1.396       .  A
C1134      H1143   1.082       .  S
C1135      C1136   1.400       .  A
C1135      H1144   1.083       .  S
C1136      C1142   1.405       .  A
C1136      C1137   1.413       .  A
C1137      C1139   1.405       .  A
C1137      C1138   1.412       .  A
C1138      H1145   1.083       .  S
C1139      C1140   1.403       .  A
C1139      H1146   1.083       .  S
C1140      C1141   1.407       .  A
C1140      H1147   1.082       .  S
C1141      C1142   1.408       .  A
C1142      H1148   1.083       .  S
C1149      C1150   1.409       .  A
C1149      C1154   1.410       .  A
C1150      C1151   1.399       .  A
C1150      H1159   1.083       .  S
C1151      C1152   1.402       .  A
C1151      H1160   1.082       .  S
C1152      C1158   1.409       .  A
C1152      C1153   1.413       .  A
C1153      C1155   1.401       .  A
C1153      C1154   1.406       .  A
C1154      H1161   1.082       .  S
C1155      C1156   1.397       .  A
C1155      H1162   1.082       .  S
C1156      C1157   1.407       .  A
C1156      H1163   1.083       .  S
C1157      C1158   1.407       .  A
C1158      H1164   1.082       .  S
C1165      C1166   1.407       .  A
C1165      C1170   1.406       .  A
C1166      C1167   1.402       .  A
C1166      H1175   1.082       .  S
C1167      C1168   1.404       .  A
C1167      H1176   1.085       .  S
C1168      C1174   1.410       .  A
C1168      C1169   1.413       .  A
C1169      C1171   1.400       .  A
C1169      C1170   1.403       .  A
C1170      H1177   1.084       .  S
C1171      C1172   1.394       .  A
C1171      H1178   1.085       .  S
C1172      C1173   1.406       .  A
C1172      H1179   1.082       .  S
C1173      C1174   1.408       .  A
C1174      H1180   1.085       .  S
C1181      C1182   1.404   1_565  A
C1181      C1186   1.406       .  A
C1182      C1183   1.396       .  A
C1182      H1191   1.083       .  S
C1183      C1184   1.401       .  A
C1183      H1192   1.083       .  S
C1184      C1190   1.405       .  A
C1184      C1185   1.414   1_545  A
C1185      C1187   1.402       .  A
C1185      C1186   1.408       .  A
C1186      H1193   1.083       .  S
C1187      C1188   1.400       .  A
C1187      H1194   1.083       .  S
C1188      C1189   1.409   1_565  A
C1188      H1195   1.083       .  S
C1189      C1190   1.408       .  A
C1190      H1196   1.083       .  S
C1197      C1198   1.406       .  A
C1197      C1202   1.407       .  A
C1198      C1199   1.402       .  A
C1198      H1207   1.082       .  S
C1199      C1200   1.404       .  A
C1199      H1208   1.084       .  S
C1200      C1206   1.409       .  A
C1200      C1201   1.413       .  A
C1201      C1203   1.400       .  A
C1201      C1202   1.402       .  A
C1202      H1209   1.084       .  S
C1203      C1204   1.395       .  A
C1203      H1210   1.085       .  S
C1204      C1205   1.407       .  A
C1204      H1211   1.082       .  S
C1205      C1206   1.409       .  A
C1206      H1212   1.084       .  S
C1213      C1214   1.407       .  A
C1213      C1218   1.409       .  A
C1214      C1215   1.395       .  A
C1214      H1223   1.083       .  S
C1215      C1216   1.401       .  A
C1215      H1224   1.084       .  S
C1216      C1222   1.403       .  A
C1216      C1217   1.413       .  A
C1217      C1219   1.404       .  A
C1217      C1218   1.408       .  A
C1218      H1225   1.084       .  S
C1219      C1220   1.401       .  A
C1219      H1226   1.083       .  S
C1220      C1221   1.407       .  A
C1220      H1227   1.082       .  S
C1221      C1222   1.407       .  A
C1222      H1228   1.083       .  S
C1229      C1230   1.406       .  A
C1229      C1234   1.410       .  A
C1230      C1231   1.394       .  A
C1230      H1239   1.082       .  S
C1231      C1232   1.399       .  A
C1231      H1240   1.086       .  S
C1232      C1238   1.403       .  A
C1232      C1233   1.413       .  A
C1233      C1235   1.404       .  A
C1233      C1234   1.412       .  A
C1234      H1241   1.085       .  S
C1235      C1236   1.404       .  A
C1235      H1242   1.085       .  S
C1236      C1237   1.408       .  A
C1236      H1243   1.081       .  S
C1237      C1238   1.407       .  A
C1238      H1244   1.084       .  S
C1245      C1246   1.405       .  A
C1245      C1250   1.406       .  A
C1246      C1247   1.395       .  A
C1246      H1255   1.082       .  S
C1247      C1248   1.400       .  A
C1247      H1256   1.086   1_565  S
C1248      C1254   1.402       .  A
C1248      C1249   1.414       .  A
C1249      C1251   1.403       .  A
C1249      C1250   1.409       .  A
C1250      H1257   1.086       .  S
C1251      C1252   1.401       .  A
C1251      H1258   1.086       .  S
C1252      C1253   1.409       .  A
C1252      H1259   1.081       .  S
C1253      C1254   1.407       .  A
C1254      H1260   1.086   1_565  S
C1261      C1262   1.405       .  A
C1261      C1266   1.410       .  A
C1262      C1263   1.391       .  A
C1262      H1271   1.082       .  S
C1263      C1264   1.399       .  A
C1263      H1272   1.083       .  S
C1264      C1270   1.398       .  A
C1264      C1265   1.412       .  A
C1265      C1267   1.405       .  A
C1265      C1266   1.410       .  A
C1266      H1273   1.083       .  S
C1267      C1268   1.404       .  A
C1267      H1274   1.083       .  S
C1268      C1269   1.408       .  A
C1268      H1275   1.082       .  S
C1269      C1270   1.407       .  A
C1270      H1276   1.080       .  S
C1277      C1278   1.407       .  A
C1277      C1282   1.408       .  A
C1278      C1279   1.396       .  A
C1278      H1287   1.081       .  S
C1279      C1280   1.401       .  A
C1279      H1288   1.085       .  S
C1280      C1286   1.402       .  A
C1280      C1281   1.412       .  A
C1281      C1283   1.403       .  A
C1281      C1282   1.406       .  A
C1282      H1289   1.084       .  S
C1283      C1284   1.399       .  A
C1283      H1290   1.085       .  S
C1284      C1285   1.407       .  A
C1284      H1291   1.081       .  S
C1285      C1286   1.408       .  A
C1286      H1292   1.084       .  S
C1293      C1294   1.407   1_565  A
C1293      C1298   1.407       .  A
C1294      C1295   1.396   1_545  A
C1294      H1303   1.084       .  S
C1295      C1296   1.401       .  A
C1295      H1304   1.082       .  S
C1296      C1302   1.404       .  A
C1296      C1297   1.414       .  A
C1297      C1299   1.402       .  A
C1297      C1298   1.406       .  A
C1298      H1305   1.082       .  S
C1299      C1300   1.399       .  A
C1299      H1306   1.082       .  S
C1300      C1301   1.406       .  A
C1300      H1307   1.083       .  S
C1301      C1302   1.407       .  A
C1302      H1308   1.081       .  S
C1309      C1310   1.405       .  A
C1309      C1314   1.407       .  A
C1310      C1311   1.396       .  A
C1310      H1319   1.083       .  S
C1311      C1312   1.402       .  A
C1311      H1320   1.084       .  S
C1312      C1318   1.402       .  A
C1312      C1313   1.413       .  A
C1313      C1315   1.403       .  A
C1313      C1314   1.406       .  A
C1314      H1321   1.084       .  S
C1315      C1316   1.400       .  A
C1315      H1322   1.083       .  S
C1316      C1317   1.405       .  A
C1316      H1323   1.082       .  S
C1317      C1318   1.407       .  A
C1318      H1324   1.083       .  S
C1325      C1326   1.405       .  A
C1325      C1330   1.406       .  A
C1326      C1327   1.398       .  A
C1326      H1335   1.082       .  S
C1327      C1328   1.402       .  A
C1327      H1336   1.084       .  S
C1328      C1334   1.405       .  A
C1328      C1329   1.413       .  A
C1329      C1331   1.401       .  A
C1329      C1330   1.406       .  A
C1330      H1337   1.084       .  S
C1331      C1332   1.398       .  A
C1331      H1338   1.084       .  S
C1332      C1333   1.409       .  A
C1332      H1339   1.081       .  S
C1333      C1334   1.409       .  A
C1334      H1340   1.082       .  S
C1341      C1342   1.410       .  A
C1341      C1346   1.412       .  A
C1342      C1343   1.400       .  A
C1342      H1351   1.082   1_554  S
C1343      C1344   1.402       .  A
C1343      H1352   1.082       .  S
C1344      C1350   1.407       .  A
C1344      C1345   1.413       .  A
C1345      C1347   1.403       .  A
C1345      C1346   1.404       .  A
C1346      H1353   1.081       .  S
C1347      C1348   1.397       .  A
C1347      H1354   1.082       .  S
C1348      C1349   1.403       .  A
C1348      H1355   1.084       .  S
C1349      C1350   1.405       .  A
C1350      H1356   1.083       .  S
C1357      C1358   1.408       .  A
C1357      C1362   1.408       .  A
C1358      C1359   1.401       .  A
C1358      H1367   1.082       .  S
C1359      C1360   1.403       .  A
C1359      H1368   1.082       .  S
C1360      C1366   1.410       .  A
C1360      C1361   1.413       .  A
C1361      C1363   1.400       .  A
C1361      C1362   1.405       .  A
C1362      H1369   1.080       .  S
C1363      C1364   1.395       .  A
C1363      H1370   1.082       .  S
C1364      C1365   1.407       .  A
C1364      H1371   1.083       .  S
C1365      C1366   1.408       .  A
C1366      H1372   1.082       .  S
C1373      C1374   1.407       .  A
C1373      C1378   1.407       .  A
C1374      C1375   1.399       .  A
C1374      H1383   1.082       .  S
C1375      C1376   1.403       .  A
C1375      H1384   1.083       .  S
C1376      C1382   1.407       .  A
C1376      C1377   1.412       .  A
C1377      C1379   1.401       .  A
C1377      C1378   1.405       .  A
C1378      H1385   1.083       .  S
C1379      C1380   1.397       .  A
C1379      H1386   1.083       .  S
C1380      C1381   1.408       .  A
C1380      H1387   1.081       .  S
C1381      C1382   1.410       .  A
C1382      H1388   1.082       .  S
C1389      C1390   1.404       .  A
C1389      C1394   1.408       .  A
C1390      C1391   1.395       .  A
C1390      H1399   1.083       .  S
C1391      C1392   1.401       .  A
C1391      H1400   1.083       .  S
C1392      C1398   1.403       .  A
C1392      C1393   1.413       .  A
C1393      C1395   1.404       .  A
C1393      C1394   1.410       .  A
C1394      H1401   1.083       .  S
C1395      C1396   1.402       .  A
C1395      H1402   1.083       .  S
C1396      C1397   1.408       .  A
C1396      H1403   1.083       .  S
C1397      C1398   1.408       .  A
C1398      H1404   1.083       .  S
C1405      C1406   1.406       .  A
C1405      C1410   1.407       .  A
C1406      C1407   1.395       .  A
C1406      H1415   1.082       .  S
C1407      C1408   1.401       .  A
C1407      H1416   1.084       .  S
C1408      C1414   1.403       .  A
C1408      C1409   1.413       .  A
C1409      C1411   1.403       .  A
C1409      C1410   1.408       .  A
C1410      H1417   1.084       .  S
C1411      C1412   1.401       .  A
C1411      H1418   1.084       .  S
C1412      C1413   1.407       .  A
C1412      H1419   1.082       .  S
C1413      C1414   1.407       .  A
C1414      H1420   1.082       .  S
C1421      C1422   1.407       .  A
C1421      C1426   1.407       .  A
C1422      C1423   1.398       .  A
C1422      H1431   1.081       .  S
C1423      C1424   1.401       .  A
C1423      H1432   1.085       .  S
C1424      C1430   1.404       .  A
C1424      C1425   1.413       .  A
C1425      C1427   1.402       .  A
C1425      C1426   1.404       .  A
C1426      H1433   1.084       .  S
C1427      C1428   1.397       .  A
C1427      H1434   1.085       .  S
C1428      C1429   1.405       .  A
C1428      H1435   1.082       .  S
C1429      C1430   1.407       .  A
C1430      H1436   1.085       .  S
C1437      C1438   1.403       .  A
C1437      C1442   1.405       .  A
C1438      C1439   1.397       .  A
C1438      H1447   1.083       .  S
C1439      C1440   1.402       .  A
C1439      H1448   1.084       .  S
C1440      C1446   1.405       .  A
C1440      C1441   1.414       .  A
C1441      C1443   1.402       .  A
C1441      C1442   1.407       .  A
C1442      H1449   1.085       .  S
C1443      C1444   1.399       .  A
C1443      H1450   1.084       .  S
C1444      C1445   1.409       .  A
C1444      H1451   1.082       .  S
C1445      C1446   1.408       .  A
C1446      H1452   1.084       .  S
