geometry optimzed in LAMMPS
_audit_creation_date              2020-12-01 
_audit_creation_method            'lammps2cif' 
_symmetry_space_group_name_H-M    'P1' 
_symmetry_Int_Tables_number       1 
_symmetry_cell_setting            triclinic 
loop_ 
_symmetry_equiv_pos_as_xyz 
  x,y,z 
_cell_length_a                    32.11772331 
_cell_length_b                    30.232798273279773 
_cell_length_c                    28.63858162836686 
_cell_angle_alpha                 95.28164603413302 
_cell_angle_beta                  95.73168067606046 
_cell_angle_gamma                 91.9499282202467 
loop_ 
_atom_site_label 
_atom_site_type_symbol 
_atom_site_fract_x 
_atom_site_fract_y 
_atom_site_fract_z 
_atom_site_charge 
C1          C  0.42255444  0.10557725  0.32383373     0.79600
N2          N  0.39092559  0.07355688  0.32068058    -0.78700
C3          C  0.36268517  0.07515912  0.35347711     0.82000
N4          N  0.36648013  0.10922708  0.38892716    -0.78700
C5          C  0.39779070  0.14154621  0.39225254     0.82100
N6          N  0.42542347  0.13941007  0.35929536    -0.80400
C7          C  0.35380077  0.34255861  0.08395378     0.79600
N8          N  0.32538728  0.37538790  0.08400589    -0.78700
C9          C  0.32649827  0.40708999  0.12195394     0.82000
N10         N  0.35697399  0.40607806  0.15865034    -0.78700
C11         C  0.38502818  0.37321937  0.15872482     0.82100
N12         N  0.38290317  0.34185683  0.12154949    -0.80400
C13         C  0.11927651  0.36404507  0.41976357     0.79600
N14         N  0.08802456  0.36345328  0.38395336    -0.78700
C15         C  0.08895634  0.39185786  0.34991451     0.82000
N16         N  0.12178219  0.42224488  0.35243671    -0.78700
C17         C  0.15427348  0.42281101  0.38748325     0.82100
N18         N  0.15293195  0.39315923  0.42066038    -0.80400
C19         C  0.15673960  0.09940934  0.12646346     0.79600
N20         N  0.15605588  0.12673994  0.09035919    -0.78700
C21         C  0.13034497  0.16234790  0.08932956     0.82000
N22         N  0.10483899  0.16993315  0.12424171    -0.78700
C23         C  0.10576414  0.14452984  0.16108731     0.82100
N24         N  0.13201055  0.10957604  0.16202777    -0.80400
O25         O  0.08138695  0.13966325  0.23741930    -0.72400
O26         O  0.49263655  0.10175947  0.30538213    -0.72600
O27         O  0.04056628  0.06509592  0.23954252    -0.72500
O28         O  0.03166735  0.17826908  0.30394110    -0.72500
O29         O  0.48479349  0.19368138  0.24843145    -0.72500
O30         O  0.49641777  0.08272416  0.18240047    -0.72500
O31         O  0.44660782  0.11615215  0.24851974    -0.72400
O32         O  0.03612054  0.15882487  0.18236519    -0.72600
V33         V  0.03574937  0.12177939  0.27055595     1.35200
V34         V  0.49196721  0.13775978  0.21647368     1.35200
C35         C  0.07366204  0.14995149  0.19566106     0.76800
C36         C  0.45470621  0.10529984  0.29014821     0.76900
C37         C  0.02324689  0.05703663  0.19799565     0.76700
C38         C  0.00221447  0.20212489  0.28987784     0.76700
O39         O  0.12740908  0.30629597  0.06941738    -0.72400
O40         O  0.17869885  0.24854067  0.96858995    -0.72600
O41         O  0.14922517  0.32711867  0.48490364    -0.72500
O42         O  0.15949498  0.22532885  0.05531474    -0.72500
O43         O  0.09898885  0.19832639  0.02294063    -0.72500
O44         O  0.08983018  0.29927918  0.45014912    -0.72500
O45         O  0.11917435  0.21786106  0.43681581    -0.72400
O46         O  0.06830875  0.27792878  0.53346100    -0.72600
V47         V  0.15277077  0.27587423  0.01902820     1.35200
V48         V  0.09521287  0.24904142  0.48658740     1.35200
C49         C  0.08803135  0.30235399  0.06700072     0.76800
C50         C  0.15775184  0.22408699  0.93545666     0.76900
C51         C  0.11898200  0.32930648  0.45360063     0.76700
C52         C  0.13049732  0.19536276  0.05293891     0.76700
O53         O  0.26507782  0.44209922  0.09108511    -0.72400
O54         O  0.18867022  0.03260364  0.09168624    -0.72600
O55         O  0.26198043  0.52588050  0.07349483    -0.72500
O56         O  0.18767891  0.44226079  0.11441640    -0.72500
O57         O  0.21625241  0.96501920  0.18363258    -0.72500
O58         O  0.28619878  0.05421689  0.14540810    -0.72500
O59         O  0.20712456  0.05189018  0.16567704    -0.72400
O60         O  0.29277793  0.46958322  0.16032648    -0.72600
V61         V  0.22419095  0.48635409  0.09471387     1.35200
V62         V  0.25063459  0.00890238  0.16301614     1.35200
C63         C  0.29375203  0.44126792  0.12451822     0.76800
C64         C  0.18503718  0.05945035  0.12800504     0.76900
C65         C  0.27906155  0.55776974  0.10130068     0.76700
C66         C  0.19467205  0.43418181  0.15693090     0.76700
O67         O  0.04410168  0.35228244  0.28547083    -0.72400
O68         O  0.44847403  0.34506540  0.19259273    -0.72600
O69         O  0.02700292  0.37463601  0.19551929    -0.72500
O70         O  0.96499410  0.32033136  0.27877463    -0.72500
O71         O  0.45786140  0.38327622  0.31942211    -0.72500
O72         O  0.49842519  0.43661836  0.21610375    -0.72500
O73         O  0.42466404  0.40249421  0.23110031    -0.72400
O74         O  0.03121812  0.42124241  0.30438372    -0.72600
V75         V  0.99602691  0.34907089  0.23879489     1.35200
V76         V  0.47813285  0.41013156  0.26728604     1.35200
C77         C  0.05411888  0.38868724  0.31083108     0.76800
C78         C  0.42023973  0.37316997  0.19623754     0.76900
C79         C  0.51929803  0.41370270  0.18793106     0.76700
C80         C  0.45562932  0.34115379  0.31604854     0.77700
O81         O  0.19170615  0.48535852  0.36268836    -0.72400
O82         O  0.28971524  0.05354297  0.33828007    -0.72600
O83         O  0.23641372  0.98441924  0.29584630    -0.72500
O84         O  0.24643836  0.05655273  0.41147978    -0.72500
O85         O  0.28398361  0.50761974  0.44259046    -0.72500
O86         O  0.27439878  0.42969006  0.33100172    -0.72500
O87         O  0.33018849  0.00423974  0.36653150    -0.72400
O88         O  0.22884207  0.44049811  0.40289203    -0.72600
V89         V  0.24233773  0.01984348  0.35393073     1.35200
V90         V  0.27870858  0.47009781  0.38624431     1.35200
C91         C  0.19306176  0.45128272  0.38535359     0.76800
C92         C  0.32642816  0.04203116  0.35067836     0.76900
C93         C  0.25185983  0.44022891  0.29551832     0.76700
C94         C  0.26611516  0.54407237  0.44387178     0.76700
O95         O  0.43686546  0.28449646  0.48998450    -0.72400
O96         O  0.32762787  0.25296335  0.43349589    -0.72600
O97         O  0.36239755  0.31451473  0.00347611    -0.72500
O98         O  0.40118021  0.22048423  0.41935248    -0.72500
O99         O  0.39331607  0.17394191  0.47133688    -0.72500
O100        O  0.35697261  0.26688801  0.05506676    -0.72500
O101        O  0.32172496  0.20616164  0.98568364    -0.72400
O102        O  0.43063544  0.23711822  0.04126686    -0.72600
V103        V  0.38227666  0.26705141  0.46233454     1.35200
V104        V  0.37602015  0.22195315  0.01219770     1.35200
C105        C  0.44960246  0.27066530  0.02893502     0.76800
C106        C  0.30651119  0.22332698  0.94966439     0.76900
C107        C  0.35536589  0.30668818  0.04490520     0.76700
C108        C  0.39900912  0.18032334  0.42936924     0.76700
C109        C  0.26437080  0.11162892  0.06090655    -0.09800
C110        C  0.28758268  0.59898195  0.08081048     0.06400
C111        C  0.32193415  0.59799023  0.05451832    -0.03600
C112        C  0.31480735  0.58420124  0.50614798    -0.08000
C113        C  0.27331733  0.57469072  0.48583307     0.05500
C114        C  0.25211592  0.09347385  0.51402117    -0.03000
Br115      Br  0.19386634  0.07693434  0.49692276    -0.02700
H116        H  0.23978637  0.12092198  0.08273106     0.09400
H117        H  0.34100646  0.57606048  0.48634843     0.07400
Br118      Br  0.37748955  0.60045769  0.08578093    -0.03200
C119        C  0.22783515  0.37082911  0.18094846    -0.09800
C120        C  0.18811421  0.38925230  0.17257193     0.06400
C121        C  0.16450472  0.89307101  0.20877975    -0.03600
C122        C  0.18445772  0.91039978  0.25236296    -0.08000
C123        C  0.23084350  0.40667923  0.26019570     0.05500
C124        C  0.25107538  0.38279652  0.22523933    -0.03000
Br125      Br  0.30802004  0.36748451  0.23728286    -0.02700
H126        H  0.24403355  0.35780829  0.15160591     0.09400
H127        H  0.16634054  0.92107766  0.28083138     0.07400
Br128      Br  0.12016222  0.85023026  0.20971345    -0.03200
C129        C  0.04010968  0.29911451  0.12351865    -0.09800
C130        C  0.06231663  0.32759866  0.09786908     0.06400
C131        C  0.03785881  0.35470000  0.56980440    -0.03600
C132        C  0.49961902  0.33602051  0.54730189    -0.08000
C133        C  0.48369583  0.29536804  0.06027752     0.05500
C134        C  0.50110139  0.28061170  0.10331598    -0.03000
Br135      Br  0.47533403  0.23514226  0.13475923    -0.02700
H136        H  0.05643600  0.28370453  0.15229003     0.09400
H137        H  0.48484099  0.35105574  0.51735074     0.07400
Br138      Br  0.06483828  0.40144851  0.54122352    -0.03200
C139        C  0.20086835  0.16656096  0.93063373    -0.09800
C140        C  0.18043800  0.19643053  0.90315450     0.06400
C141        C  0.20456535  0.21908978  0.37374815    -0.03600
C142        C  0.24795217  0.22391269  0.38561751    -0.08000
C143        C  0.26504259  0.20838313  0.92792743     0.05500
C144        C  0.23975319  0.18232931  0.95284507    -0.03000
Br145      Br  0.24230252  0.19737914  0.02018609    -0.02700
H146        H  0.18119266  0.14841973  0.95131629     0.09400
H147        H  0.26678197  0.24417045  0.36572852     0.07400
Br148      Br  0.17866169  0.25256616  0.32627445    -0.03200
C149        C  0.07448377  0.45523235  0.16397886    -0.09800
C150        C  0.03589393  0.43357452  0.14879362     0.06400
C151        C  0.50614489  0.45766360  0.12347014    -0.03600
C152        C  0.50195350  0.99789832  0.13562752    -0.08000
C153        C  0.03371883  0.01860099  0.16832336     0.05500
C154        C  0.07160065  0.99692364  0.17737551    -0.03000
Br155      Br  0.11951594  0.02270314  0.21732475    -0.02700
H156        H  0.10056922  0.43626912  0.17608777     0.09400
H157        H  0.47394942  0.01505151  0.12515118     0.07400
Br158      Br  0.45656712  0.42918837  0.08965289    -0.03200
C159        C  0.99274319  0.30446846  0.37339005    -0.09800
C160        C  0.45177146  0.31418741  0.35556958     0.06400
C161        C  0.42444131  0.27696602  0.34183750    -0.03600
C162        C  0.44130490  0.23851876  0.32129279    -0.08000
C163        C  0.98511004  0.23596248  0.32198183     0.05500
C164        C  0.01101558  0.26725249  0.35144878    -0.03000
Br165      Br  0.07038779  0.26499216  0.35082888    -0.02700
H166        H  0.01319710  0.33111838  0.39149776     0.09400
H167        H  0.42052535  0.21278897  0.30174204     0.07400
Br168      Br  0.36544441  0.28440048  0.33110972    -0.03200
C169        C  0.42260872  0.10564374  0.82392976     0.79600
N170        N  0.39096521  0.07363672  0.82081827    -0.78700
C171        C  0.36271261  0.07532004  0.85360807     0.82000
N172        N  0.36651398  0.10943683  0.88899125    -0.78700
C173        C  0.39783261  0.14173086  0.89226526     0.82100
N174        N  0.42547572  0.13952968  0.85932839    -0.80400
C175        C  0.35402323  0.34256755  0.58396811     0.79600
N176        N  0.32561414  0.37540174  0.58403944    -0.78700
C177        C  0.32677566  0.40713648  0.62196037     0.82000
N178        N  0.35728443  0.40614382  0.65861963    -0.78700
C179        C  0.38533833  0.37328833  0.65869300     0.82100
N180        N  0.38317900  0.34189310  0.62153296    -0.80400
C181        C  0.11926839  0.36416521  0.91989286     0.79600
N182        N  0.08802889  0.36356448  0.88406777    -0.78700
C183        C  0.08893446  0.39201186  0.85006645     0.82000
N184        N  0.12172023  0.42245532  0.85264420    -0.78700
C185        C  0.15419326  0.42303902  0.88771452     0.82100
N186        N  0.15288130  0.39334153  0.92084808    -0.80400
C187        C  0.15689044  0.09946901  0.62654106     0.79600
N188        N  0.15612799  0.12674886  0.59038320    -0.78700
C189        C  0.13040764  0.16235456  0.58936415     0.82000
N190        N  0.10497859  0.16998897  0.62434026    -0.78700
C191        C  0.10597650  0.14464526  0.66123574     0.82100
N192        N  0.13222787  0.10968954  0.66216473    -0.80400
O193        O  0.08159617  0.13984266  0.73760338    -0.72400
O194        O  0.49270216  0.10179242  0.80553760    -0.72600
O195        O  0.04084168  0.06522460  0.73957874    -0.72500
O196        O  0.03176251  0.17832004  0.80412565    -0.72500
O197        O  0.48483224  0.19381467  0.74870883    -0.72500
O198        O  0.49662825  0.08294022  0.68259652    -0.72500
O199        O  0.44671047  0.11623417  0.74866042    -0.72400
O200        O  0.03634426  0.15896277  0.68251376    -0.72600
V201        V  0.03593344  0.12186648  0.77066891     1.35200
V202        V  0.49208912  0.13792943  0.71671290     1.35200
C203        C  0.07388426  0.15009971  0.69582870     0.76800
C204        C  0.45477798  0.10532897  0.79026927     0.76900
C205        C  0.02351724  0.05718753  0.69802992     0.76700
C206        C  0.00233380  0.20219548  0.79002776     0.76700
O207        O  0.12736577  0.30627025  0.56939917    -0.72400
O208        O  0.17866310  0.24853843  0.46854874    -0.72600
O209        O  0.14928496  0.32714264  0.98493568    -0.72500
O210        O  0.15949239  0.22532221  0.55528609    -0.72500
O211        O  0.09896349  0.19831851  0.52298855    -0.72500
O212        O  0.08985862  0.29935296  0.95021946    -0.72500
O213        O  0.11920014  0.21792858  0.93680243    -0.72400
O214        O  0.06836076  0.27791405  0.03349565    -0.72600
V215        V  0.15273236  0.27585943  0.51900090     1.35200
V216        V  0.09524890  0.24907707  0.98659620     1.35200
C217        C  0.08798484  0.30235632  0.56697482     0.76800
C218        C  0.15771713  0.22406800  0.43542723     0.76900
C219        C  0.11901443  0.32937437  0.95367493     0.76700
C220        C  0.13050320  0.19535452  0.55294955     0.76700
O221        O  0.26526569  0.44207785  0.59121986    -0.72400
O222        O  0.18875223  0.03260344  0.59175117    -0.72600
O223        O  0.26222062  0.52582080  0.57357448    -0.72500
O224        O  0.18790788  0.44235668  0.61468835    -0.72500
O225        O  0.21655050  0.96511121  0.68377066    -0.72500
O226        O  0.28635186  0.05422746  0.64517366    -0.72500
O227        O  0.20734785  0.05196126  0.66569922    -0.72400
O228        O  0.29315392  0.46969272  0.66033723    -0.72600
V229        V  0.22442567  0.48638038  0.59489634     1.35200
V230        V  0.25085259  0.00895984  0.66297224     1.35200
C231        C  0.29403379  0.44131360  0.62456488     0.76800
C232        C  0.18519137  0.05949493  0.62806011     0.76900
C233        C  0.27928551  0.55777076  0.60129846     0.76700
C234        C  0.19502937  0.43422325  0.65716947     0.76700
O235        O  0.04411532  0.35239092  0.78561757    -0.72400
O236        O  0.44882346  0.34522269  0.69264439    -0.72600
O237        O  0.02709932  0.37471894  0.69566227    -0.72500
O238        O  0.96500115  0.32042218  0.77884496    -0.72500
O239        O  0.45803055  0.38352841  0.81948075    -0.72500
O240        O  0.49864554  0.43682171  0.71618445    -0.72500
O241        O  0.42490376  0.40261939  0.73109125    -0.72400
O242        O  0.03122660  0.42136356  0.80445450    -0.72600
V243        V  0.99607122  0.34915794  0.73889485     1.35200
V244        V  0.47833397  0.41035402  0.76735327     1.35200
C245        C  0.05412146  0.38881354  0.81095282     0.76800
C246        C  0.42054582  0.37328471  0.69623287     0.76900
C247        C  0.51959153  0.41392580  0.68807798     0.76700
C248        C  0.45582519  0.34140877  0.81614500     0.77700
O249        O  0.19161665  0.48559436  0.86293510    -0.72400
O250        O  0.28973170  0.05377879  0.83851382    -0.72600
O251        O  0.23634638  0.98468296  0.79621003    -0.72500
O252        O  0.24650253  0.05695225  0.91178376    -0.72500
O253        O  0.28386284  0.50789740  0.94279699    -0.72500
O254        O  0.27434357  0.42983507  0.83134626    -0.72500
O255        O  0.33016891  0.00449528  0.86687095    -0.72400
O256        O  0.22874103  0.44074615  0.90317031    -0.72600
V257        V  0.24233259  0.02017926  0.85425556     1.35200
V258        V  0.27861534  0.47030719  0.88651105     1.35200
C259        C  0.19296757  0.45152834  0.88561377     0.76800
C260        C  0.32643592  0.04223781  0.85090216     0.76900
C261        C  0.25179987  0.44030180  0.79583794     0.76700
C262        C  0.26603368  0.54437036  0.94399751     0.76700
O263        O  0.43684580  0.28466698  0.99000392    -0.72400
O264        O  0.32762427  0.25304270  0.93347448    -0.72600
O265        O  0.36248438  0.31443519  0.50347385    -0.72500
O266        O  0.40121170  0.22066086  0.91934266    -0.72500
O267        O  0.39340102  0.17409510  0.97131915    -0.72500
O268        O  0.35702113  0.26685050  0.55509914    -0.72500
O269        O  0.32167076  0.20612453  0.48573532    -0.72400
O270        O  0.43062826  0.23699835  0.54129323    -0.72600
V271        V  0.38226103  0.26718274  0.96233279     1.35200
V272        V  0.37599664  0.22185804  0.51222648     1.35200
C273        C  0.44957391  0.27056415  0.52896339     0.76800
C274        C  0.30647878  0.22328646  0.44970160     0.76900
C275        C  0.35548862  0.30665325  0.54492842     0.76700
C276        C  0.39907614  0.18049996  0.92935926     0.76700
C277        C  0.26447938  0.11143025  0.56049665    -0.09800
C278        C  0.28775803  0.59892022  0.58066911     0.06400
C279        C  0.32208192  0.59786927  0.55432955    -0.03600
C280        C  0.31469188  0.58446171  0.00630587    -0.08000
C281        C  0.27320956  0.57500798  0.98593811     0.05500
C282        C  0.25206321  0.09372392  0.01439655    -0.03000
Br283      Br  0.19384158  0.07713562  0.99719843    -0.02700
H284        H  0.23991526  0.12077880  0.58233796     0.09400
H285        H  0.34090284  0.57633536  0.98652166     0.07400
Br286      Br  0.37766728  0.60051704  0.58553034    -0.03200
C287        C  0.22825239  0.37094074  0.68125499    -0.09800
C288        C  0.18849942  0.38926619  0.67275486     0.06400
C289        C  0.16472357  0.89313906  0.70896758    -0.03600
C290        C  0.18455344  0.91050200  0.75260043    -0.08000
C291        C  0.23094324  0.40669670  0.76049949     0.05500
C292        C  0.25135571  0.38296019  0.72560890    -0.03000
Br293      Br  0.30846213  0.36822486  0.73772077    -0.02700
H294        H  0.24459487  0.35808284  0.65196350     0.09400
H295        H  0.16634903  0.92111190  0.78101273     0.07400
Br296      Br  0.12020361  0.85044895  0.70963442    -0.03200
C297        C  0.04009774  0.29914046  0.62355449    -0.09800
C298        C  0.06228509  0.32760677  0.59786631     0.06400
C299        C  0.03791276  0.35468088  0.06977092    -0.03600
C300        C  0.49980712  0.33598278  0.04726757    -0.08000
C301        C  0.48355733  0.29539819  0.56035542     0.05500
C302        C  0.50091951  0.28076701  0.60347076    -0.03000
Br303      Br  0.47505773  0.23548230  0.63507883    -0.02700
H304        H  0.05643963  0.28373374  0.65231928     0.09400
H305        H  0.48502413  0.35108331  0.01736258     0.07400
Br306      Br  0.06493144  0.40141316  0.04119682    -0.03200
C307        C  0.20081999  0.16653568  0.43051060    -0.09800
C308        C  0.18040235  0.19644560  0.40308466     0.06400
C309        C  0.20457020  0.21903592  0.87376682    -0.03600
C310        C  0.24796423  0.22386401  0.88558982    -0.08000
C311        C  0.26500457  0.20837617  0.42793458     0.05500
C312        C  0.23969155  0.18226734  0.45277717    -0.03000
Br313      Br  0.24218268  0.19721351  0.52011686    -0.02700
H314        H  0.18110246  0.14831060  0.45117390     0.09400
H315        H  0.26677067  0.24410081  0.86566998     0.07400
Br316      Br  0.17861710  0.25256754  0.82637525    -0.03200
C317        C  0.07457833  0.45529663  0.66419021    -0.09800
C318        C  0.03599716  0.43364952  0.64892710     0.06400
C319        C  0.50643942  0.45787538  0.62361299    -0.03600
C320        C  0.50227489  0.99822534  0.63571731    -0.08000
C321        C  0.03400285  0.01879101  0.66829886     0.05500
C322        C  0.07186753  0.99707517  0.67733029    -0.03000
Br323      Br  0.11980299  0.02278474  0.71728873    -0.02700
H324        H  0.10065497  0.43631316  0.67629298     0.09400
H325        H  0.47429033  0.01539921  0.62521329     0.07400
Br326      Br  0.45681304  0.42939503  0.58990478    -0.03200
C327        C  0.99280303  0.30458424  0.87346997    -0.09800
C328        C  0.45192508  0.31449146  0.85569572     0.06400
C329        C  0.42454235  0.27731003  0.84201815    -0.03600
C330        C  0.44134025  0.23879831  0.82152378    -0.08000
C331        C  0.98520240  0.23604689  0.82210340     0.05500
C332        C  0.01109036  0.26736622  0.85154993    -0.03000
Br333      Br  0.07045889  0.26513129  0.85091431    -0.02700
H334        H  0.01324325  0.33124898  0.89156755     0.09400
H335        H  0.42052227  0.21307740  0.80202261     0.07400
Br336      Br  0.36555138  0.28483826  0.83144971    -0.03200
C337        C  0.42489129  0.60055691  0.33247933     0.79600
N338        N  0.39302868  0.56875244  0.32808559    -0.78700
C339        C  0.36476868  0.56942954  0.36080695     0.82000
N340        N  0.36854060  0.60275118  0.39714113    -0.78700
C341        C  0.40010314  0.63494361  0.40141379     0.82100
N342        N  0.42778504  0.63350230  0.36866910    -0.80400
C343        C  0.35475167  0.83696317  0.09145242     0.79600
N344        N  0.32755553  0.87088496  0.08931576    -0.78700
C345        C  0.32882126  0.90386053  0.12606768     0.82000
N346        N  0.35854454  0.90318774  0.16366207    -0.78700
C347        C  0.38557063  0.86941378  0.16590396     0.82100
N348        N  0.38308319  0.83671784  0.12990320    -0.80400
C349        C  0.12481286  0.86236840  0.42076241     0.79600
N350        N  0.09340404  0.86225933  0.38533215    -0.78700
C351        C  0.09323615  0.89175179  0.35241776     0.82000
N352        N  0.12544901  0.92293786  0.35559005    -0.78700
C353        C  0.15834305  0.92316425  0.39022043     0.82100
N354        N  0.15796780  0.89234595  0.42243544    -0.80400
C355        C  0.15121641  0.59865590  0.13011069     0.79600
N356        N  0.15000497  0.62613145  0.09402428    -0.78700
C357        C  0.12571121  0.66296569  0.09445805     0.82000
N358        N  0.10176284  0.67137797  0.13068917    -0.78700
C359        C  0.10313891  0.64563013  0.16731645     0.82100
N360        N  0.12818791  0.60969957  0.16688726    -0.80400
O361        O  0.08134844  0.64008226  0.24440447    -0.72400
O362        O  0.49464260  0.59934177  0.31339060    -0.72600
O363        O  0.04138779  0.56498040  0.24557469    -0.72500
O364        O  0.03329249  0.67651540  0.31314122    -0.72500
O365        O  0.48456610  0.69263447  0.25996814    -0.72500
O366        O  0.49677359  0.58391313  0.18964378    -0.72500
O367        O  0.44757654  0.61394559  0.25762362    -0.72400
O368        O  0.03488108  0.66095993  0.19155287    -0.72600
V369        V  0.03679982  0.62082616  0.27817770     1.35200
V370        V  0.49187768  0.63778024  0.22579050     1.35200
C371        C  0.07254057  0.65154546  0.20329359     0.76800
C372        C  0.45650127  0.60202113  0.29862534     0.76900
C373        C  0.02420249  0.55820917  0.20390260     0.76700
C374        C  0.00369944  0.70076225  0.30056820     0.76700
O375        O  0.12721764  0.80788085  0.07128486    -0.72400
O376        O  0.17914283  0.74505168  0.97453820    -0.72600
O377        O  0.15251142  0.82549733  0.48743602    -0.72500
O378        O  0.15689852  0.72496323  0.06028270    -0.72500
O379        O  0.09508830  0.70119887  0.02891292    -0.72500
O380        O  0.09442467  0.79741611  0.44965001    -0.72500
O381        O  0.11999562  0.71333281  0.44370194    -0.72400
O382        O  0.06836953  0.78307878  0.53220985    -0.72600
V383        V  0.15293679  0.77504409  0.02281337     1.35200
V384        V  0.09563234  0.74947690  0.48932734     1.35200
C385        C  0.08777326  0.80725367  0.06599514     0.76800
C386        C  0.15863867  0.71713462  0.94430770     0.76900
C387        C  0.12372383  0.82739553  0.45438055     0.76700
C388        C  0.12654184  0.69660583  0.05853501     0.76700
O389        O  0.27041122  0.94165418  0.09127177    -0.72400
O390        O  0.18252479  0.53188939  0.09423068    -0.72600
O391        O  0.26881408  0.02591678  0.07326404    -0.72500
O392        O  0.19211561  0.94297512  0.11153685    -0.72500
O393        O  0.21516288  0.46318995  0.18566206    -0.72500
O394        O  0.27876265  0.55632602  0.14487290    -0.72500
O395        O  0.20139591  0.55001725  0.16832445    -0.72400
O396        O  0.29525561  0.96739136  0.16215715    -0.72600
V397        V  0.22992184  0.98665361  0.09333924     1.35200
V398        V  0.24647570  0.50897860  0.16375189     1.35200
C399        C  0.29716746  0.93934520  0.12639596     0.76800
C400        C  0.17907963  0.55821281  0.13096439     0.76900
C401        C  0.28789211  0.05593043  0.10203729     0.76700
C402        C  0.19669445  0.93575393  0.15442234     0.76700
O403        O  0.04715162  0.85175017  0.28967852    -0.72400
O404        O  0.44920433  0.84203801  0.20022872    -0.72600
O405        O  0.02710145  0.87203740  0.19965927    -0.72500
O406        O  0.96847477  0.81954987  0.28731436    -0.72500
O407        O  0.46206368  0.88357619  0.32630235    -0.72500
O408        O  0.49903077  0.93439416  0.21981241    -0.72500
O409        O  0.42612038  0.90045980  0.23765610    -0.72400
O410        O  0.03439551  0.92086603  0.30785988    -0.72600
V411        V  0.99780930  0.84735276  0.24492726     1.35200
V412        V  0.48046258  0.90903644  0.27244463     1.35200
C413        C  0.05769073  0.88851697  0.31406231     0.76800
C414        C  0.42106160  0.87025659  0.20353405     0.76900
C415        C  0.51900936  0.91089707  0.19127082     0.76700
C416        C  0.46056872  0.84151963  0.32457031     0.77700
O417        O  0.19310395  0.98866673  0.36847360    -0.72400
O418        O  0.29190779  0.54915907  0.34070529    -0.72600
O419        O  0.24088611  0.47994218  0.29468288    -0.72500
O420        O  0.24253375  0.55326694  0.40855208    -0.72500
O421        O  0.28884665  0.00939875  0.44115084    -0.72500
O422        O  0.27460891  0.93481082  0.32746802    -0.72500
O423        O  0.32974146  0.49917665  0.37181701    -0.72400
O424        O  0.23300036  0.94203289  0.40257528    -0.72600
V425        V  0.24265215  0.51597062  0.35210389     1.35200
V426        V  0.28101222  0.97355923  0.38374574     1.35200
C427        C  0.19630631  0.95305252  0.38838702     0.76800
C428        C  0.32774911  0.53704687  0.35582372     0.76900
C429        C  0.24908773  0.94519976  0.29443633     0.76700
C430        C  0.27193671  0.04636171  0.44480196     0.76700
O431        O  0.43578894  0.78128579  0.49359680    -0.72400
O432        O  0.32682604  0.74179049  0.44400219    -0.72600
O433        O  0.36058135  0.80705324  0.01065463    -0.72500
O434        O  0.40088621  0.71372337  0.42689074    -0.72500
O435        O  0.39766649  0.66811768  0.48069816    -0.72500
O436        O  0.36127328  0.76111318  0.06466434    -0.72500
O437        O  0.32550806  0.69709939  0.99912562    -0.72400
O438        O  0.43500527  0.73462454  0.04673367    -0.72600
V439        V  0.38141111  0.75994011  0.46955188     1.35200
V440        V  0.38003567  0.71608059  0.02163176     1.35200
C441        C  0.45085852  0.76904523  0.03251369     0.76800
C442        C  0.30795248  0.71216093  0.96294190     0.76900
C443        C  0.35668267  0.80024220  0.05319734     0.76700
C444        C  0.40099499  0.67391185  0.43803914     0.76700
C445        C  0.24900409  0.60813291  0.05698431    -0.09800
C446        C  0.30134604  0.09631511  0.08278592     0.06400
C447        C  0.33469858  0.09113154  0.05515101    -0.03600
C448        C  0.32531726  0.07995999  0.50621414    -0.08000
C449        C  0.28307134  0.07644274  0.48701582     0.05500
C450        C  0.23974597  0.58730491  0.51105988    -0.03000
Br451      Br  0.18356451  0.56309067  0.49186773    -0.02700
H452        H  0.22330136  0.61495601  0.07759075     0.09400
H453        H  0.34982254  0.06854284  0.48521552     0.07400
Br454      Br  0.38987305  0.08323543  0.08404031    -0.03200
C455        C  0.22764291  0.87237096  0.18145328    -0.09800
C456        C  0.18853504  0.89130634  0.17058514     0.06400
C457        C  0.16553164  0.38975918  0.21187815    -0.03600
C458        C  0.18684634  0.40486749  0.25549228    -0.08000
C459        C  0.22845420  0.91174390  0.25884895     0.05500
C460        C  0.24957937  0.88571576  0.22619216    -0.03000
Br461      Br  0.30599875  0.86984797  0.24144451    -0.02700
H462        H  0.24461553  0.85778636  0.15347085     0.09400
H463        H  0.16970788  0.41413508  0.28513568     0.07400
Br464      Br  0.11813438  0.35048718  0.21135853    -0.03200
C465        C  0.04160980  0.80577710  0.12373810    -0.09800
C466        C  0.06198169  0.83352106  0.09574787     0.06400
C467        C  0.03593278  0.85809361  0.56632688    -0.03600
C468        C  0.49825664  0.83712338  0.54569911    -0.08000
C469        C  0.48409548  0.79676991  0.06169568     0.05500
C470        C  0.50269780  0.78534391  0.10567368    -0.03000
Br471      Br  0.47885907  0.74210236  0.14153329    -0.02700
H472        H  0.05917898  0.79189610  0.15271313     0.09400
H473        H  0.48225507  0.84994064  0.51499607     0.07400
Br474      Br  0.06006609  0.90457960  0.53492912    -0.03200
C475        C  0.20118295  0.66196926  0.95940834    -0.09800
C476        C  0.18173939  0.68242247  0.92184321     0.06400
C477        C  0.20661332  0.69480867  0.38723745    -0.03600
C478        C  0.24998766  0.70026450  0.39854979    -0.08000
C479        C  0.26628151  0.69579781  0.94500874     0.05500
C480        C  0.24070608  0.67971895  0.97684316    -0.03000
Br481      Br  0.24815810  0.70536003  0.04203490    -0.02700
H482        H  0.18159791  0.65259857  0.98590234     0.09400
H483        H  0.26936122  0.71301065  0.37357532     0.07400
Br484      Br  0.18115552  0.71592933  0.33078988    -0.03200
C485        C  0.07204284  0.95196227  0.16247080    -0.09800
C486        C  0.03330411  0.92964405  0.15054105     0.06400
C487        C  0.50222061  0.95217612  0.12534467    -0.03600
C488        C  0.50552402  0.50289377  0.13693546    -0.08000
C489        C  0.03594488  0.52159666  0.17252543     0.05500
C490        C  0.07353463  0.49940225  0.18199988    -0.03000
Br491      Br  0.11978589  0.52261864  0.22626195    -0.02700
H492        H  0.09869486  0.93386649  0.17456124     0.09400
H493        H  0.47807958  0.52074854  0.12602828     0.07400
Br494      Br  0.45133003  0.92219377  0.09686557    -0.03200
C495        C  0.00105445  0.80618098  0.38064612    -0.09800
C496        C  0.45945996  0.81616483  0.36578936     0.06400
C497        C  0.43122846  0.77925185  0.35627420    -0.03600
C498        C  0.44613771  0.73942390  0.33647142    -0.08000
C499        C  0.98937860  0.73576000  0.33326358     0.05500
C500        C  0.01744202  0.76787386  0.35844298    -0.03000
Br501      Br  0.07602964  0.76468913  0.35053916    -0.02700
H502        H  0.02236165  0.83306336  0.39613418     0.09400
H503        H  0.42404541  0.71331254  0.32009264     0.07400
Br504      Br  0.37228309  0.78779471  0.35059704    -0.03200
C505        C  0.42475039  0.60075097  0.83250719     0.79600
N506        N  0.39292921  0.56889075  0.82811676    -0.78700
C507        C  0.36467596  0.56951908  0.86085130     0.82000
N508        N  0.36841030  0.60282972  0.89717990    -0.78700
C509        C  0.39991457  0.63507054  0.90144117     0.82100
N510        N  0.42759354  0.63369434  0.86869518    -0.80400
C511        C  0.35503339  0.83702707  0.59134442     0.79600
N512        N  0.32777524  0.87090167  0.58920146    -0.78700
C513        C  0.32899181  0.90387940  0.62595365     0.82000
N514        N  0.35871223  0.90324654  0.66355332    -0.78700
C515        C  0.38579078  0.86952629  0.66581322     0.82100
N516        N  0.38336413  0.83683134  0.62981017    -0.80400
C517        C  0.12473082  0.86261722  0.92074863     0.79600
N518        N  0.09336535  0.86254001  0.88527680    -0.78700
C519        C  0.09320557  0.89210207  0.85243492     0.82000
N520        N  0.12539666  0.92333700  0.85573258    -0.78700
C521        C  0.15825275  0.92353870  0.89041865     0.82100
N522        N  0.15785980  0.89264362  0.92254915    -0.80400
C523        C  0.15149333  0.59868018  0.63044186     0.79600
N524        N  0.15030217  0.62615336  0.59436057    -0.78700
C525        C  0.12599677  0.66297000  0.59476258     0.82000
N526        N  0.10200607  0.67137228  0.63095261    -0.78700
C527        C  0.10334129  0.64562612  0.66757713     0.82100
N528        N  0.12841052  0.60970098  0.66718850    -0.80400
O529        O  0.08141959  0.64017665  0.74463990    -0.72400
O530        O  0.49454279  0.59963632  0.81351463    -0.72600
O531        O  0.04142662  0.56510281  0.74583449    -0.72500
O532        O  0.03325960  0.67671402  0.81324882    -0.72500
O533        O  0.48448050  0.69282318  0.75994567    -0.72500
O534        O  0.49678876  0.58403724  0.68977879    -0.72500
O535        O  0.44750858  0.61412073  0.75766249    -0.72400
O536        O  0.03502038  0.66096397  0.69165946    -0.72600
V537        V  0.03680719  0.62098357  0.77836259     1.35200
V538        V  0.49183767  0.63793429  0.72584267     1.35200
C539        C  0.07267155  0.65156007  0.70348629     0.76800
C540        C  0.45640349  0.60224980  0.79869329     0.76900
C541        C  0.02425889  0.55828140  0.70415817     0.76700
C542        C  0.00369970  0.70096719  0.80057720     0.76700
O543        O  0.12728753  0.80792669  0.57137995    -0.72400
O544        O  0.17939170  0.74493867  0.47486489    -0.72600
O545        O  0.15237002  0.82562988  0.98736661    -0.72500
O546        O  0.15709696  0.72503073  0.56062890    -0.72500
O547        O  0.09540329  0.70102106  0.52909065    -0.72500
O548        O  0.09433265  0.79757165  0.94944047    -0.72500
O549        O  0.11972104  0.71340549  0.94351803    -0.72400
O550        O  0.06825191  0.78335641  0.03199092    -0.72600
V551        V  0.15309866  0.77500937  0.52302517     1.35200
V552        V  0.09542864  0.74964294  0.98912646     1.35200
C553        C  0.08783603  0.80714003  0.56612277     0.76800
C554        C  0.15891869  0.71705437  0.44456930     0.76900
C555        C  0.12362052  0.82756867  0.95427693     0.76700
C556        C  0.12681622  0.69657099  0.55881370     0.76700
O557        O  0.27044641  0.94157654  0.59125491    -0.72400
O558        O  0.18280634  0.53196461  0.59448386    -0.72600
O559        O  0.26882517  0.02578196  0.57310538    -0.72500
O560        O  0.19221224  0.94300838  0.61175156    -0.72500
O561        O  0.21561753  0.46319154  0.68586951    -0.72500
O562        O  0.27899819  0.55642068  0.64488897    -0.72500
O563        O  0.20170167  0.55001188  0.66858793    -0.72400
O564        O  0.29547339  0.96744867  0.66203412    -0.72600
V565        V  0.22997825  0.98661146  0.59336572     1.35200
V566        V  0.24682102  0.50903212  0.66388600     1.35200
C567        C  0.29730218  0.93933896  0.62630506     0.76800
C568        C  0.17936121  0.55823913  0.63125662     0.76900
C569        C  0.28796998  0.05582712  0.60177687     0.76700
C570        C  0.19692800  0.93582177  0.65464064     0.76700
O571        O  0.04719680  0.85207457  0.78961822    -0.72400
O572        O  0.44942446  0.84224076  0.70026404    -0.72600
O573        O  0.02723415  0.87228499  0.69955531    -0.72500
O574        O  0.96851079  0.81982031  0.78714420    -0.72500
O575        O  0.46203084  0.88382458  0.82630837    -0.72500
O576        O  0.49920792  0.93468264  0.71995026    -0.72500
O577        O  0.42625817  0.90067227  0.73758664    -0.72400
O578        O  0.03438646  0.92118023  0.80775510    -0.72600
V579        V  0.99789293  0.84762068  0.74479107     1.35200
V580        V  0.48054335  0.90929609  0.77251688     1.35200
C581        C  0.05769822  0.88885159  0.81400762     0.76800
C582        C  0.42125609  0.87043594  0.70349034     0.76900
C583        C  0.51921318  0.91119466  0.69142951     0.76700
C584        C  0.46057829  0.84177106  0.82458444     0.77700
O585        O  0.19306704  0.98909016  0.86884038    -0.72400
O586        O  0.29183712  0.54922367  0.84074129    -0.72600
O587        O  0.24076361  0.47998494  0.79492517    -0.72500
O588        O  0.24249547  0.55354573  0.90863643    -0.72500
O589        O  0.28882536  0.00975016  0.94150877    -0.72500
O590        O  0.27456737  0.93511596  0.82787619    -0.72500
O591        O  0.32965654  0.49933397  0.87205301    -0.72400
O592        O  0.23291393  0.94240885  0.90293067    -0.72600
V593        V  0.24257221  0.51612930  0.85226292     1.35200
V594        V  0.28096756  0.97388530  0.88411646     1.35200
C595        C  0.19623218  0.95344933  0.88870769     0.76800
C596        C  0.32767330  0.53713218  0.85590326     0.76900
C597        C  0.24905424  0.94547705  0.79482823     0.76700
C598        C  0.27196443  0.04673953  0.94513495     0.76700
O599        O  0.43551069  0.78123837  0.99369710    -0.72400
O600        O  0.32652696  0.74191293  0.94403878    -0.72600
O601        O  0.36084051  0.80702969  0.51054027    -0.72500
O602        O  0.40058579  0.71381549  0.92693144    -0.72500
O603        O  0.39736443  0.66816689  0.98070587    -0.72500
O604        O  0.36165202  0.76116244  0.56462455    -0.72500
O605        O  0.32584832  0.69707775  0.49918476    -0.72400
O606        O  0.43535922  0.73466286  0.54662656    -0.72600
V607        V  0.38112142  0.75998904  0.96962912     1.35200
V608        V  0.38038279  0.71608475  0.52160714     1.35200
C609        C  0.45114061  0.76913289  0.53243139     0.76800
C610        C  0.30826979  0.71207702  0.46297851     0.76900
C611        C  0.35699612  0.80026958  0.55311144     0.76700
C612        C  0.40073231  0.67400336  0.93806584     0.76700
C613        C  0.24914750  0.60796994  0.55683692    -0.09800
C614        C  0.30144952  0.09610220  0.58237157     0.06400
C615        C  0.33477088  0.09074799  0.55471496    -0.03600
C616        C  0.32529643  0.08035334  0.00663568    -0.08000
C617        C  0.28305997  0.07678939  0.98739100     0.05500
C618        C  0.23962033  0.58756788  0.01116263    -0.03000
Br619      Br  0.18345424  0.56332555  0.99190108    -0.02700
H620        H  0.22345388  0.61482466  0.57744511     0.09400
H621        H  0.34984520  0.06905870  0.98564210     0.07400
Br622      Br  0.38984772  0.08228931  0.58354461    -0.03200
C623        C  0.22799915  0.87258775  0.68186009    -0.09800
C624        C  0.18884747  0.89138816  0.67086164     0.06400
C625        C  0.16577932  0.38966897  0.71194556    -0.03600
C626        C  0.18694516  0.40475119  0.75564503    -0.08000
C627        C  0.22854899  0.91199761  0.75919589     0.05500
C628        C  0.24982673  0.88604865  0.72662434    -0.03000
Br629      Br  0.30638479  0.87064056  0.74192629    -0.02700
H630        H  0.24508767  0.85809054  0.65393751     0.09400
H631        H  0.16969794  0.41391385  0.78523125     0.07400
Br632      Br  0.11836659  0.35035112  0.71115892    -0.03200
C633        C  0.04143850  0.80587574  0.62367349    -0.09800
C634        C  0.06197669  0.83350783  0.59571421     0.06400
C635        C  0.03580289  0.85812832  0.06652926    -0.03600
C636        C  0.49811991  0.83688924  0.04563195    -0.08000
C637        C  0.48427362  0.79694757  0.56168977     0.05500
C638        C  0.50284650  0.78551673  0.60568091    -0.03000
Br639      Br  0.47901987  0.74220853  0.64147223    -0.02700
H640        H  0.05886659  0.79208489  0.65280544     0.09400
H641        H  0.48211412  0.84969293  0.01492330     0.07400
Br642      Br  0.05972382  0.90468083  0.03504419    -0.03200
C643        C  0.20151309  0.66189157  0.45958802    -0.09800
C644        C  0.18203509  0.68237460  0.42206631     0.06400
C645        C  0.20635885  0.69484530  0.88704947    -0.03600
C646        C  0.24972487  0.70034814  0.89843351    -0.08000
C647        C  0.26659309  0.69569845  0.44510290     0.05500
C648        C  0.24105095  0.67962424  0.47697535    -0.03000
Br649      Br  0.24854806  0.70525670  0.54217164    -0.02700
H650        H  0.18196236  0.65249697  0.48609909     0.09400
H651        H  0.26912367  0.71310307  0.87349203     0.07400
Br652      Br  0.18093677  0.71596946  0.83058733    -0.03200
C653        C  0.07227660  0.95212189  0.66236611    -0.09800
C654        C  0.03351917  0.92984714  0.65040307     0.06400
C655        C  0.50248366  0.95249557  0.62550009    -0.03600
C656        C  0.50577033  0.50309953  0.63707120    -0.08000
C657        C  0.03602005  0.52164688  0.67281597     0.05500
C658        C  0.07359779  0.49943496  0.68232062    -0.03000
Br659      Br  0.11978295  0.52256152  0.72672653    -0.02700
H660        H  0.09891974  0.93398739  0.67441745     0.09400
H661        H  0.47831687  0.52092151  0.62612253     0.07400
Br662      Br  0.45153895  0.92257556  0.59709391    -0.03200
C663        C  0.00101112  0.80650227  0.88047307    -0.09800
C664        C  0.45936469  0.81641649  0.86578788     0.06400
C665        C  0.43110938  0.77952828  0.85619482    -0.03600
C666        C  0.44601631  0.73969974  0.83638376    -0.08000
C667        C  0.98935286  0.73602591  0.83318730     0.05500
C668        C  0.01740756  0.76818934  0.85829251    -0.03000
Br669      Br  0.07597213  0.76508126  0.85023549    -0.02700
H670        H  0.02231094  0.83340614  0.89591523     0.09400
H671        H  0.42392271  0.71360723  0.81996180     0.07400
Br672      Br  0.37217470  0.78814097  0.85036642    -0.03200
C673        C  0.92250289  0.10562646  0.32390386     0.79600
N674        N  0.89083808  0.07364720  0.32073508    -0.78700
C675        C  0.86259057  0.07528664  0.35352177     0.82000
N676        N  0.86641433  0.10934676  0.38897731    -0.78700
C677        C  0.89775984  0.14162617  0.39231419     0.82100
N678        N  0.92540066  0.13945738  0.35936777    -0.80400
C679        C  0.85390803  0.34259091  0.08392719     0.79600
N680        N  0.82546027  0.37538233  0.08403871    -0.78700
C681        C  0.82657411  0.40705835  0.12200620     0.82000
N682        N  0.85707931  0.40605974  0.15867017    -0.78700
C683        C  0.88516654  0.37323582  0.15869730     0.82100
N684        N  0.88304670  0.34189400  0.12149654    -0.80400
C685        C  0.61916802  0.36402455  0.41976975     0.79600
N686        N  0.58790608  0.36342019  0.38396722    -0.78700
C687        C  0.58885963  0.39176475  0.34987268     0.82000
N688        N  0.62171224  0.42211111  0.35233655    -0.78700
C689        C  0.65420737  0.42269257  0.38738015     0.82100
N690        N  0.65284619  0.39309663  0.42060929    -0.80400
C691        C  0.65688963  0.09943330  0.12646718     0.79600
N692        N  0.65619719  0.12674342  0.09034609    -0.78700
C693        C  0.63044850  0.16231735  0.08927260     0.82000
N694        N  0.60492233  0.16989610  0.12416827    -0.78700
C695        C  0.60585834  0.14451643  0.16103578     0.82100
N696        N  0.63213663  0.10959026  0.16201236    -0.80400
O697        O  0.58145544  0.13965256  0.23736182    -0.72400
O698        O  0.99258103  0.10179165  0.30546102    -0.72600
O699        O  0.54062909  0.06507908  0.23946065    -0.72500
O700        O  0.53172026  0.17824564  0.30388538    -0.72500
O701        O  0.98470961  0.19368491  0.24850901    -0.72500
O702        O  0.99637275  0.08274269  0.18246615    -0.72500
O703        O  0.94654921  0.11614321  0.24858254    -0.72400
O704        O  0.53619723  0.15879213  0.18228848    -0.72600
V705        V  0.53581010  0.12175967  0.27048673     1.35200
V706        V  0.99190020  0.13777070  0.21654425     1.35200
C707        C  0.57373964  0.14992968  0.19559742     0.76800
C708        C  0.95465081  0.10531849  0.29022004     0.76900
C709        C  0.52329081  0.05701336  0.19792195     0.76700
C710        C  0.50227292  0.20210536  0.28981342     0.76700
O711        O  0.62749370  0.30623084  0.06938197    -0.72400
O712        O  0.67876946  0.24853764  0.96848781    -0.72600
O713        O  0.64912057  0.32716263  0.48495437    -0.72500
O714        O  0.65959448  0.22528032  0.05523166    -0.72500
O715        O  0.59908860  0.19827332  0.02286101    -0.72500
O716        O  0.58972534  0.29929394  0.45022726    -0.72500
O717        O  0.61910762  0.21789052  0.43692638    -0.72400
O718        O  0.56823794  0.27795348  0.53356717    -0.72600
V719        V  0.65285292  0.27583636  0.01896917     1.35200
V720        V  0.59513996  0.24907396  0.48668851     1.35200
C721        C  0.58811492  0.30228330  0.06697559     0.76800
C722        C  0.65780403  0.22414872  0.93531401     0.76900
C723        C  0.61887254  0.32932368  0.45364984     0.76700
C724        C  0.63059707  0.19531642  0.05286378     0.76700
O725        O  0.76513894  0.44204357  0.09118296    -0.72400
O726        O  0.68882562  0.03263044  0.09171070    -0.72600
O727        O  0.76210369  0.52583611  0.07368373    -0.72500
O728        O  0.68771783  0.44220211  0.11444671    -0.72500
O729        O  0.71632084  0.96506163  0.18367448    -0.72500
O730        O  0.78638075  0.05416647  0.14546888    -0.72500
O731        O  0.70728012  0.05193179  0.16570029    -0.72400
O732        O  0.79281339  0.46947188  0.16045585    -0.72600
V733        V  0.72426946  0.48630411  0.09482573     1.35200
V734        V  0.75075455  0.00890047  0.16306470     1.35200
C735        C  0.79380604  0.44119713  0.12461777     0.76800
C736        C  0.68519573  0.05948523  0.12802347     0.76900
C737        C  0.77918434  0.55769882  0.10152772     0.76700
C738        C  0.69467864  0.43407600  0.15694940     0.76700
O739        O  0.54398002  0.35218980  0.28543812    -0.72400
O740        O  0.94862411  0.34510867  0.19258731    -0.72600
O741        O  0.52685813  0.37456003  0.19549592    -0.72500
O742        O  0.46486269  0.32025484  0.27875080    -0.72500
O743        O  0.95796302  0.38336526  0.31941155    -0.72500
O744        O  0.99854546  0.43668625  0.21609926    -0.72500
O745        O  0.92479000  0.40253776  0.23106888    -0.72400
O746        O  0.53111169  0.42115027  0.30437131    -0.72600
V747        V  0.49589028  0.34899878  0.23877705     1.35200
V748        V  0.97824743  0.41020453  0.26727752     1.35200
C749        C  0.55400941  0.38859118  0.31080255     0.76800
C750        C  0.92038061  0.37320363  0.19621283     0.76900
C751        C  0.01942834  0.41377238  0.18793824     0.76700
C752        C  0.95573983  0.34124457  0.31605728     0.77700
O753        O  0.69167666  0.48516257  0.36248355    -0.72400
O754        O  0.78961643  0.05368784  0.33829888    -0.72600
O755        O  0.73630995  0.98454494  0.29590541    -0.72500
O756        O  0.74631698  0.05676662  0.41148364    -0.72500
O757        O  0.78389861  0.50750628  0.44246723    -0.72500
O758        O  0.77439549  0.42946298  0.33096588    -0.72500
O759        O  0.83007518  0.00441199  0.36663471    -0.72400
O760        O  0.72877991  0.44035884  0.40280037    -0.72600
V761        V  0.74222674  0.02001323  0.35396302     1.35200
V762        V  0.77866722  0.46992909  0.38616335     1.35200
C763        C  0.69301035  0.45112823  0.38521283     0.76800
C764        C  0.82632421  0.04218079  0.35073412     0.76900
C765        C  0.75189299  0.43997137  0.29544155     0.76700
C766        C  0.76602117  0.54395294  0.44368573     0.76700
O767        O  0.93681823  0.28458020  0.49004580    -0.72400
O768        O  0.82758257  0.25297359  0.43355457    -0.72600
O769        O  0.86249574  0.31455667  0.00344126    -0.72500
O770        O  0.90115903  0.22055579  0.41941156    -0.72500
O771        O  0.89332818  0.17400842  0.47140102    -0.72500
O772        O  0.85693155  0.26691519  0.05499040    -0.72500
O773        O  0.82166290  0.20622745  0.98554927    -0.72400
O774        O  0.93058160  0.23710452  0.04125650    -0.72600
V775        V  0.88223136  0.26710376  0.46239010     1.35200
V776        V  0.87596787  0.22196858  0.01212959     1.35200
C777        C  0.94958710  0.27062766  0.02891600     0.76800
C778        C  0.80649930  0.22342990  0.94952699     0.76900
C779        C  0.85542310  0.30672785  0.04485911     0.76700
C780        C  0.89900444  0.18039619  0.42943138     0.76700
C781        C  0.76480699  0.11161962  0.06094826    -0.09800
C782        C  0.78774808  0.59892609  0.08107953     0.06400
C783        C  0.82209007  0.59792696  0.05476865    -0.03600
C784        C  0.81469526  0.58415465  0.50592109    -0.08000
C785        C  0.77320833  0.57462212  0.48560585     0.05500
C786        C  0.75192880  0.09361146  0.51407226    -0.03000
Br787      Br  0.69370797  0.07690421  0.49699738    -0.02700
H788        H  0.74025246  0.12105253  0.08276648     0.09400
H789        H  0.84089806  0.57597525  0.48614331     0.07400
Br790      Br  0.87765921  0.60041165  0.08599667    -0.03200
C791        C  0.72783081  0.37068193  0.18083890    -0.09800
C792        C  0.68810960  0.38912004  0.17252139     0.06400
C793        C  0.66453223  0.89310311  0.20878178    -0.03600
C794        C  0.68442592  0.91045828  0.25238708    -0.08000
C795        C  0.73087700  0.40639457  0.26014808     0.05500
C796        C  0.75109202  0.38258576  0.22512999    -0.03000
Br797      Br  0.80804831  0.36729540  0.23710104    -0.02700
H798        H  0.74401657  0.35771541  0.15146515     0.09400
H799        H  0.66626585  0.92112734  0.28081866     0.07400
Br800      Br  0.62017020  0.85026032  0.20962745    -0.03200
C801        C  0.54018811  0.29902243  0.12348586    -0.09800
C802        C  0.56240011  0.32751726  0.09785389     0.06400
C803        C  0.53778597  0.35473993  0.56982954    -0.03600
C804        C  0.99966176  0.33602381  0.54732214    -0.08000
C805        C  0.98364500  0.29537261  0.06027633     0.05500
C806        C  0.00104022  0.28066104  0.10333838    -0.03000
Br807      Br  0.97527409  0.23520769  0.13480002    -0.02700
H808        H  0.55651826  0.28356541  0.15222152     0.09400
H809        H  0.98485831  0.35109294  0.51740866     0.07400
Br810      Br  0.56478749  0.40147854  0.54125161    -0.03200
C811        C  0.70087407  0.16657219  0.92998383    -0.09800
C812        C  0.68045274  0.19667120  0.90280124     0.06400
C813        C  0.70450478  0.21891619  0.37387915    -0.03600
C814        C  0.74789505  0.22376792  0.38571425    -0.08000
C815        C  0.76505183  0.20851665  0.92766411     0.05500
C816        C  0.73974234  0.18224362  0.95234210    -0.03000
Br817      Br  0.74212910  0.19699577  0.01969979    -0.02700
H818        H  0.68118855  0.14818618  0.95043034     0.09400
H819        H  0.76671499  0.24393531  0.36572886     0.07400
Br820      Br  0.67856913  0.25219633  0.32625126    -0.03200
C821        C  0.57437032  0.45514144  0.16397167    -0.09800
C822        C  0.53577066  0.43350468  0.14878957     0.06400
C823        C  0.00625744  0.45771141  0.12345542    -0.03600
C824        C  0.00193856  0.99791912  0.13571041    -0.08000
C825        C  0.53373975  0.01856529  0.16824893     0.05500
C826        C  0.57161728  0.99687501  0.17728576    -0.03000
Br827      Br  0.61954487  0.02263069  0.21723151    -0.02700
H828        H  0.60045846  0.43616354  0.17604884     0.09400
H829        H  0.97393157  0.01506399  0.12522689     0.07400
Br830      Br  0.95665160  0.42923269  0.08970628    -0.03200
C831        C  0.49267164  0.30439491  0.37337113    -0.09800
C832        C  0.95185508  0.31430356  0.35559214     0.06400
C833        C  0.92448139  0.27711440  0.34188899    -0.03600
C834        C  0.94129491  0.23862819  0.32136585    -0.08000
C835        C  0.48512598  0.23590949  0.32192386     0.05500
C836        C  0.51099039  0.26721169  0.35142224    -0.03000
Br837      Br  0.57036998  0.26499107  0.35086838    -0.02700
H838        H  0.51309286  0.33105808  0.39150859     0.09400
H839        H  0.92048426  0.21291164  0.30184100     0.07400
Br840      Br  0.86549575  0.28462820  0.33119199    -0.03200
C841        C  0.92264422  0.10561166  0.82390802     0.79600
N842        N  0.89103374  0.07356850  0.82081928    -0.78700
C843        C  0.86278250  0.07523182  0.85361149     0.82000
N844        N  0.86655112  0.10936769  0.88897498    -0.78700
C845        C  0.89783685  0.14169707  0.89223084     0.82100
N846        N  0.92547938  0.13951309  0.85929040    -0.80400
C847        C  0.85391713  0.34259620  0.58399832     0.79600
N848        N  0.82554097  0.37546337  0.58403541    -0.78700
C849        C  0.82670734  0.40720954  0.62194805     0.82000
N850        N  0.85719370  0.40619317  0.65863122    -0.78700
C851        C  0.88521642  0.37330379  0.65872861     0.82100
N852        N  0.88304562  0.34190260  0.62157932    -0.80400
C853        C  0.61931730  0.36420082  0.91993543     0.79600
N854        N  0.58808491  0.36361777  0.88410594    -0.78700
C855        C  0.58898334  0.39211050  0.85014672     0.82000
N856        N  0.62175945  0.42257218  0.85276586    -0.78700
C857        C  0.65422773  0.42313578  0.88783975     0.82100
N858        N  0.65292011  0.39339808  0.92093256    -0.80400
C859        C  0.65682886  0.09950427  0.62660780     0.79600
N860        N  0.65606833  0.12679497  0.59045978    -0.78700
C861        C  0.63037844  0.16242614  0.58947396     0.82000
N862        N  0.60497030  0.17007212  0.62446565    -0.78700
C863        C  0.60596137  0.14471563  0.66134779     0.82100
N864        N  0.63218702  0.10973569  0.66224970    -0.80400
O865        O  0.58157484  0.13991256  0.73770995    -0.72400
O866        O  0.99273851  0.10176524  0.80548751    -0.72600
O867        O  0.54083851  0.06528536  0.73965281    -0.72500
O868        O  0.53170551  0.17835990  0.80420975    -0.72500
O869        O  0.98488896  0.19378422  0.74862991    -0.72500
O870        O  0.99660626  0.08287645  0.68254483    -0.72500
O871        O  0.94673393  0.11622502  0.74863179    -0.72400
O872        O  0.53633327  0.15904588  0.68261653    -0.72600
V873        V  0.53590376  0.12191612  0.77074815     1.35200
V874        V  0.99210720  0.13788294  0.71664720     1.35200
C875        C  0.57387042  0.15017724  0.69593800     0.76800
C876        C  0.95481077  0.10531407  0.79023788     0.76900
C877        C  0.52354041  0.05725797  0.69809214     0.76700
C878        C  0.50227337  0.20222918  0.79010755     0.76700
O879        O  0.62728451  0.30635173  0.56947437    -0.72400
O880        O  0.67858874  0.24859269  0.46865630    -0.72600
O881        O  0.64935381  0.32712428  0.98491700    -0.72500
O882        O  0.65943313  0.22541024  0.55539931    -0.72500
O883        O  0.59891967  0.19836348  0.52309842    -0.72500
O884        O  0.58991645  0.29935383  0.95021342    -0.72500
O885        O  0.61926277  0.21794714  0.93670666    -0.72400
O886        O  0.56844135  0.27784626  0.03347217    -0.72600
V887        V  0.65265210  0.27592768  0.51908769     1.35200
V888        V  0.59532596  0.24904660  0.98654547     1.35200
C889        C  0.58790721  0.30240740  0.56706585     0.76800
C890        C  0.65765355  0.22408750  0.43555581     0.76900
C891        C  0.61907193  0.32937729  0.95367825     0.76700
C892        C  0.63046152  0.19542258  0.55306028     0.76700
O893        O  0.76519806  0.44215149  0.59118565    -0.72400
O894        O  0.68865181  0.03262767  0.59177677    -0.72600
O895        O  0.76212522  0.52587193  0.57343964    -0.72500
O896        O  0.68785903  0.44246498  0.61470726    -0.72500
O897        O  0.71649443  0.96510581  0.68373030    -0.72500
O898        O  0.78627948  0.05424396  0.64516369    -0.72500
O899        O  0.70729184  0.05196750  0.66571813    -0.72400
O900        O  0.79313575  0.46984716  0.66025278    -0.72600
V901        V  0.72435610  0.48646012  0.59483771     1.35200
V902        V  0.75079100  0.00896121  0.66294376     1.35200
C903        C  0.79398610  0.44141823  0.62451736     0.76800
C904        C  0.68511453  0.05951331  0.62809751     0.76900
C905        C  0.77918354  0.55785693  0.60111632     0.76700
C906        C  0.69502691  0.43435712  0.65719108     0.76700
O907        O  0.54420913  0.35249313  0.78567036    -0.72400
O908        O  0.94869199  0.34519224  0.69263824    -0.72600
O909        O  0.52721377  0.37480998  0.69570514    -0.72500
O910        O  0.46511104  0.32048663  0.77887914    -0.72500
O911        O  0.95798943  0.38345573  0.81949043    -0.72500
O912        O  0.99855582  0.43674344  0.71615470    -0.72500
O913        O  0.92481063  0.40258737  0.73112809    -0.72400
O914        O  0.53127870  0.42145426  0.80450721    -0.72600
V915        V  0.49618319  0.34923121  0.73892899     1.35200
V916        V  0.97826294  0.41028662  0.76734459     1.35200
C917        C  0.55418727  0.38891483  0.81101470     0.76800
C918        C  0.92042769  0.37326839  0.69625785     0.76900
C919        C  0.01949130  0.41383861  0.68804117     0.76700
C920        C  0.95576267  0.34133425  0.81613547     0.77700
O921        O  0.69164465  0.48574286  0.86315316    -0.72400
O922        O  0.78980517  0.05368040  0.83858318    -0.72600
O923        O  0.73638243  0.98463362  0.79625176    -0.72500
O924        O  0.74667373  0.05676196  0.91192080    -0.72500
O925        O  0.78394437  0.50793700  0.94295110    -0.72500
O926        O  0.77433087  0.42997861  0.83141743    -0.72500
O927        O  0.83026957  0.00435862  0.86681195    -0.72400
O928        O  0.72877827  0.44082957  0.90328875    -0.72600
V929        V  0.74243136  0.02005876  0.85434287     1.35200
V930        V  0.77864692  0.47039699  0.88662366     1.35200
C931        C  0.69300054  0.45163915  0.88577283     0.76800
C932        C  0.82651808  0.04212926  0.85090625     0.76900
C933        C  0.75176745  0.44048500  0.79594265     0.76700
C934        C  0.76613367  0.54442198  0.94421193     0.76700
O935        O  0.93688645  0.28459460  0.98995323    -0.72400
O936        O  0.82765646  0.25314979  0.93340296    -0.72600
O937        O  0.86240523  0.31447159  0.50351616    -0.72500
O938        O  0.90119967  0.22063927  0.91928751    -0.72500
O939        O  0.89334579  0.17409062  0.97126887    -0.72500
O940        O  0.85698393  0.26688784  0.55515087    -0.72500
O941        O  0.82167653  0.20613965  0.48581066    -0.72400
O942        O  0.93061111  0.23706597  0.54134498    -0.72600
V943        V  0.88229531  0.26719461  0.96228031     1.35200
V944        V  0.87598697  0.22190735  0.51228752     1.35200
C945        C  0.94955598  0.27062494  0.52900651     0.76800
C946        C  0.80645719  0.22329276  0.44978660     0.76900
C947        C  0.85540993  0.30668515  0.54496770     0.76700
C948        C  0.89904756  0.18048079  0.92931176     0.76700
C949        C  0.76428168  0.11152446  0.56056243    -0.09800
C950        C  0.78763382  0.59897196  0.58041840     0.06400
C951        C  0.82196250  0.59788683  0.55408803    -0.03600
C952        C  0.81482916  0.58443394  0.00654858    -0.08000
C953        C  0.77333934  0.57501846  0.98618964     0.05500
C954        C  0.75244000  0.09366893  0.01446133    -0.03000
Br955      Br  0.69415539  0.07741694  0.99726534    -0.02700
H956        H  0.73971341  0.12080476  0.58242045     0.09400
H957        H  0.84102950  0.57631761  0.98674323     0.07400
Br958      Br  0.87754007  0.60050352  0.58530748    -0.03200
C959        C  0.72825656  0.37109580  0.68135442    -0.09800
C960        C  0.68850616  0.38941646  0.67281610     0.06400
C961        C  0.66470088  0.89314896  0.70895806    -0.03600
C962        C  0.68456310  0.91052078  0.75256977    -0.08000
C963        C  0.73091176  0.40691587  0.76056676     0.05500
C964        C  0.75133878  0.38313748  0.72571531    -0.03000
Br965      Br  0.80842999  0.36836034  0.73788378    -0.02700
H966        H  0.74461037  0.35820944  0.65208417     0.09400
H967        H  0.66638312  0.92113090  0.78100663     0.07400
Br968      Br  0.62022558  0.85043266  0.70972099    -0.03200
C969        C  0.53999363  0.29922748  0.62362739    -0.09800
C970        C  0.56220071  0.32767491  0.59793665     0.06400
C971        C  0.53800238  0.35463072  0.06978623    -0.03600
C972        C  0.99973213  0.33599472  0.04724949    -0.08000
C973        C  0.98359160  0.29540485  0.56036587     0.05500
C974        C  0.00100089  0.28071522  0.60343378    -0.03000
Br975      Br  0.97519331  0.23536677  0.63500501    -0.02700
H976        H  0.55630614  0.28387767  0.65245092     0.09400
H977        H  0.98495159  0.35106536  0.01732374     0.07400
Br978      Br  0.56502117  0.40139985  0.04127339    -0.03200
C979        C  0.70079014  0.16659312  0.43089363    -0.09800
C980        C  0.68035991  0.19638163  0.40331715     0.06400
C981        C  0.70460140  0.21949593  0.87359957    -0.03600
C982        C  0.74799350  0.22427036  0.88545947    -0.08000
C983        C  0.76496828  0.20837225  0.42809494     0.05500
C984        C  0.73967308  0.18238126  0.45307241    -0.03000
Br985      Br  0.74226253  0.19748919  0.52040533    -0.02700
H986        H  0.68109077  0.14849956  0.45167707     0.09400
H987        H  0.76680561  0.24467732  0.86571576     0.07400
Br988      Br  0.67868550  0.25339498  0.82651554    -0.03200
C989        C  0.57464306  0.45543228  0.66421772    -0.09800
C990        C  0.53608035  0.43374400  0.64895867     0.06400
C991        C  0.00638121  0.45781979  0.62360013    -0.03600
C992        C  0.00223244  0.99816790  0.63562573    -0.08000
C993        C  0.53404713  0.01887109  0.66836694     0.05500
C994        C  0.57190476  0.99715613  0.67743734    -0.03000
Br995      Br  0.61982951  0.02288628  0.71739999    -0.02700
H996        H  0.60073175  0.43647922  0.67635154     0.09400
H997        H  0.97424447  0.01534489  0.62514137     0.07400
Br998      Br  0.95674623  0.42938305  0.58986368    -0.03200
C999        C  0.49280496  0.30465169  0.87350980    -0.09800
C1000       C  0.95190696  0.31439209  0.85567563     0.06400
C1001       C  0.92455412  0.27718690  0.84198381    -0.03600
C1002       C  0.94138391  0.23870436  0.82146684    -0.08000
C1003       C  0.48515642  0.23609895  0.82217149     0.05500
C1004       C  0.51106489  0.26740979  0.85160582    -0.03000
Br1005     Br  0.57042815  0.26515611  0.85093782    -0.02700
H1006       H  0.51326668  0.33130813  0.89158922     0.09400
H1007       H  0.92058398  0.21297550  0.80195099     0.07400
Br1008     Br  0.86555734  0.28466360  0.83136788    -0.03200
C1009       C  0.92486453  0.60045467  0.33245343     0.79600
N1010       N  0.89303209  0.56861106  0.32804688    -0.78700
C1011       C  0.86475030  0.56925763  0.36074676     0.82000
N1012       N  0.86846564  0.60259567  0.39706461    -0.78700
C1013       C  0.89999309  0.63482858  0.40134548     0.82100
N1014       N  0.92769827  0.63341191  0.36862649    -0.80400
C1015       C  0.85478904  0.83688652  0.09153818     0.79600
N1016       N  0.82760537  0.87081880  0.08939237    -0.78700
C1017       C  0.82887765  0.90379898  0.12613962     0.82000
N1018       N  0.85859578  0.90312445  0.16373421    -0.78700
C1019       C  0.88560941  0.86934370  0.16598829     0.82100
N1020       N  0.88311833  0.83663923  0.12999304    -0.80400
C1021       C  0.62476593  0.86245151  0.42069206     0.79600
N1022       N  0.59339205  0.86229528  0.38521785    -0.78700
C1023       C  0.59321100  0.89179697  0.35231450     0.82000
N1024       N  0.62537627  0.92304595  0.35554442    -0.78700
C1025       C  0.65824175  0.92331586  0.39021685     0.82100
N1026       N  0.65787970  0.89248601  0.42241996    -0.80400
C1027       C  0.65131288  0.59859098  0.13024671     0.79600
N1028       N  0.65011255  0.62604657  0.09414548    -0.78700
C1029       C  0.62583014  0.66288581  0.09455910     0.82000
N1030       N  0.60187960  0.67132327  0.13078163    -0.78700
C1031       C  0.60323817  0.64558989  0.16741828     0.82100
N1032       N  0.62827908  0.60965310  0.16701385    -0.80400
O1033       O  0.58139579  0.64006499  0.24448053    -0.72400
O1034       O  0.99463664  0.59935371  0.31338863    -0.72600
O1035       O  0.54140015  0.56496695  0.24558997    -0.72500
O1036       O  0.53331134  0.67649627  0.31319275    -0.72500
O1037       O  0.98448068  0.69260280  0.25996729    -0.72500
O1038       O  0.99676967  0.58391442  0.18961395    -0.72500
O1039       O  0.94755148  0.61387273  0.25760378    -0.72400
O1040       O  0.53496139  0.66092961  0.19158303    -0.72600
V1041       V  0.53682240  0.62081131  0.27821168     1.35200
V1042       V  0.99182747  0.63776376  0.22577104     1.35200
C1043       C  0.57261487  0.65151616  0.20336157     0.76800
C1044       C  0.95648758  0.60196956  0.29861249     0.76900
C1045       C  0.52418611  0.55818516  0.20392956     0.76700
C1046       C  0.50374742  0.70076994  0.30058950     0.76700
O1047       O  0.62723242  0.80784190  0.07134636    -0.72400
O1048       O  0.67926383  0.74495921  0.97470865    -0.72600
O1049       O  0.65244271  0.82559223  0.48739058    -0.72500
O1050       O  0.65697242  0.72493813  0.06045444    -0.72500
O1051       O  0.59525888  0.70101005  0.02891354    -0.72500
O1052       O  0.59438576  0.79749095  0.44955142    -0.72500
O1053       O  0.61982827  0.71334743  0.44369665    -0.72400
O1054       O  0.56835175  0.78333270  0.53214845    -0.72600
V1055       V  0.65300741  0.77497590  0.02293368     1.35200
V1056       V  0.59553208  0.74960639  0.48928887     1.35200
C1057       C  0.58778286  0.80709625  0.06608909     0.76800
C1058       C  0.65877047  0.71711957  0.94438276     0.76900
C1059       C  0.62367501  0.82748052  0.45430921     0.76700
C1060       C  0.62667053  0.69650380  0.05862236     0.76700
O1061       O  0.77050516  0.94162729  0.09132905    -0.72400
O1062       O  0.68262309  0.53184884  0.09435587    -0.72600
O1063       O  0.76897651  0.02588167  0.07332366    -0.72500
O1064       O  0.69221013  0.94300374  0.11157467    -0.72500
O1065       O  0.71516718  0.46305101  0.18572444    -0.72500
O1066       O  0.77883246  0.55622929  0.14509115    -0.72500
O1067       O  0.70143822  0.54990608  0.16847310    -0.72400
O1068       O  0.79533606  0.96734282  0.16222633    -0.72600
V1069       V  0.73004768  0.98665475  0.09338445     1.35200
V1070       V  0.74651333  0.50886407  0.16389306     1.35200
C1071       C  0.79724467  0.93929913  0.12646214     0.76800
C1072       C  0.67915567  0.55813891  0.13110503     0.76900
C1073       C  0.78810835  0.05585766  0.10210103     0.76700
C1074       C  0.69677038  0.93579253  0.15446338     0.76700
O1075       O  0.54711619  0.85176569  0.28959101    -0.72400
O1076       O  0.94924742  0.84199512  0.20032080    -0.72600
O1077       O  0.52707851  0.87203513  0.19956763    -0.72500
O1078       O  0.46842597  0.81958134  0.28722504    -0.72500
O1079       O  0.96206485  0.88353644  0.32638819    -0.72500
O1080       O  0.99905299  0.93438818  0.21994024    -0.72500
O1081       O  0.92614728  0.90041537  0.23773604    -0.72400
O1082       O  0.53438695  0.92089613  0.30772821    -0.72600
V1083       V  0.49777139  0.84737281  0.24483520     1.35200
V1084       V  0.98047887  0.90900613  0.27254945     1.35200
C1085       C  0.55767089  0.88854375  0.31395070     0.76800
C1086       C  0.92109809  0.87020392  0.20361964     0.76900
C1087       C  0.01902538  0.91090418  0.19138414     0.76700
C1088       C  0.96058740  0.84148212  0.32465172     0.77700
O1089       O  0.69298513  0.98885219  0.36851294    -0.72400
O1090       O  0.79190662  0.54894381  0.34055852    -0.72600
O1091       O  0.74093339  0.47968481  0.29454466    -0.72500
O1092       O  0.74245861  0.55310486  0.40833342    -0.72500
O1093       O  0.78869498  0.00961801  0.44122030    -0.72500
O1094       O  0.77452202  0.93497700  0.32757883    -0.72500
O1095       O  0.82972052  0.49899255  0.37175616    -0.72400
O1096       O  0.73287587  0.94223157  0.40264586    -0.72600
V1097       V  0.74263705  0.51576222  0.35192760     1.35200
V1098       V  0.78089198  0.97374973  0.38383415     1.35200
C1099       C  0.69618663  0.95323792  0.38842772     0.76800
C1100       C  0.82774003  0.53685143  0.35573143     0.76900
C1101       C  0.74900381  0.94533428  0.29452884     0.76700
C1102       C  0.77179503  0.04658814  0.44483030     0.76700
O1103       O  0.93566290  0.78117979  0.49344217    -0.72400
O1104       O  0.82666836  0.74174350  0.44389098    -0.72600
O1105       O  0.86067499  0.80701218  0.01074600    -0.72500
O1106       O  0.90071627  0.71361601  0.42677469    -0.72500
O1107       O  0.89748489  0.66803866  0.48060748    -0.72500
O1108       O  0.86128066  0.76103481  0.06471455    -0.72500
O1109       O  0.82562713  0.69700170  0.99910516    -0.72400
O1110       O  0.93506179  0.73463425  0.04688754    -0.72600
V1111       V  0.88126903  0.75986529  0.46942087     1.35200
V1112       V  0.88012514  0.71603691  0.02170017     1.35200
C1113       C  0.95092517  0.76904422  0.03265647     0.76800
C1114       C  0.80808015  0.71209374  0.96293339     0.76900
C1115       C  0.85672607  0.80017674  0.05327116     0.76700
C1116       C  0.90082807  0.67381176  0.43794629     0.76700
C1117       C  0.74917442  0.60812283  0.05727514    -0.09800
C1118       C  0.80171535  0.09618544  0.08284719     0.06400
C1119       C  0.83504619  0.09083271  0.05520328    -0.03600
C1120       C  0.82515273  0.08023722  0.50622991    -0.08000
C1121       C  0.78290491  0.07668095  0.48703701     0.05500
C1122       C  0.73963044  0.58726750  0.51080463    -0.03000
Br1123     Br  0.68344404  0.56306922  0.49161233    -0.02700
H1124       H  0.72348292  0.61495428  0.07789848     0.09400
H1125       H  0.84966562  0.06887452  0.48521466     0.07400
Br1126     Br  0.89020264  0.08285682  0.08409278    -0.03200
C1127       C  0.72772814  0.87244903  0.18157156    -0.09800
C1128       C  0.68861370  0.89134656  0.17063201     0.06400
C1129       C  0.66554536  0.38957899  0.21184091    -0.03600
C1130       C  0.68688195  0.40457512  0.25547478    -0.08000
C1131       C  0.72842254  0.91185166  0.25893656     0.05500
C1132       C  0.74961044  0.88583938  0.22632832    -0.03000
Br1133     Br  0.80606463  0.87011419  0.24164386    -0.02700
H1134       H  0.74474954  0.85787974  0.15362417     0.09400
H1135       H  0.66975914  0.41378997  0.28514364     0.07400
Br1136     Br  0.61799790  0.35050474  0.21123058    -0.03200
C1137       C  0.54147452  0.80574086  0.12371156    -0.09800
C1138       C  0.56194651  0.83341719  0.09573831     0.06400
C1139       C  0.53598077  0.85825878  0.56653404    -0.03600
C1140       C  0.99822216  0.83695216  0.54546469    -0.08000
C1141       C  0.98413752  0.79679758  0.06184078     0.05500
C1142       C  0.00284065  0.78533148  0.10575495    -0.03000
Br1143     Br  0.97917670  0.74194172  0.14156389    -0.02700
H1144       H  0.55896196  0.79189899  0.15276808     0.09400
H1145       H  0.98226744  0.84973154  0.51471112     0.07400
Br1146     Br  0.56004811  0.90482923  0.53519860    -0.03200
C1147       C  0.70130901  0.66188436  0.95929638    -0.09800
C1148       C  0.68186567  0.68245423  0.92181932     0.06400
C1149       C  0.70642356  0.69471792  0.38717035    -0.03600
C1150       C  0.74979757  0.70019887  0.39848012    -0.08000
C1151       C  0.76641694  0.69572973  0.94495986     0.05500
C1152       C  0.74083632  0.67959792  0.97675972    -0.03000
Br1153     Br  0.74824230  0.70523487  0.04195290    -0.02700
H1154       H  0.68172257  0.65247534  0.98577143     0.09400
H1155       H  0.76917047  0.71289511  0.37347748     0.07400
Br1156     Br  0.68096082  0.71570290  0.33065276    -0.03200
C1157       C  0.57205018  0.95191860  0.16235193    -0.09800
C1158       C  0.53330667  0.92961155  0.15041849     0.06400
C1159       C  0.00220208  0.95219456  0.12546937    -0.03600
C1160       C  0.00562946  0.50294592  0.13688027    -0.08000
C1161       C  0.53586716  0.52152873  0.17256461     0.05500
C1162       C  0.57344579  0.49930709  0.18201255    -0.03000
Br1163     Br  0.61972716  0.52248423  0.22625037    -0.02700
H1164       H  0.59870289  0.93381116  0.17441423     0.09400
H1165       H  0.97817958  0.52078500  0.12595634     0.07400
Br1166     Br  0.95129092  0.92221825  0.09704438    -0.03200
C1167       C  0.50108093  0.80624835  0.38056024    -0.09800
C1168       C  0.95944376  0.81612392  0.36586096     0.06400
C1169       C  0.93119751  0.77922710  0.35630585    -0.03600
C1170       C  0.94609765  0.73940818  0.33647002    -0.08000
C1171       C  0.48941856  0.73578247  0.33326186     0.05500
C1172       C  0.51747480  0.76792672  0.35839270    -0.03000
Br1173     Br  0.57605658  0.76473604  0.35045912    -0.02700
H1174       H  0.52237917  0.83314829  0.39601612     0.09400
H1175       H  0.92400005  0.71331694  0.32005768     0.07400
Br1176     Br  0.87225859  0.78781005  0.35055440    -0.03200
C1177       C  0.92481216  0.60074107  0.83255320     0.79600
N1178       N  0.89296018  0.56891635  0.82817285    -0.78700
C1179       C  0.86472512  0.56957345  0.86092859     0.82000
N1180       N  0.86850948  0.60287072  0.89726741    -0.78700
C1181       C  0.90004388  0.63507386  0.90152148     0.82100
N1182       N  0.92770479  0.63367553  0.86875478    -0.80400
C1183       C  0.85494780  0.83702782  0.59120172     0.79600
N1184       N  0.82768961  0.87090696  0.58907503    -0.78700
C1185       C  0.82892422  0.90388781  0.62582973     0.82000
N1186       N  0.85865966  0.90324774  0.66341535    -0.78700
C1187       C  0.88573757  0.86952423  0.66565913     0.82100
N1188       N  0.88329362  0.83683024  0.62965441    -0.80400
C1189       C  0.62477237  0.86255453  0.92088901     0.79600
N1190       N  0.59337574  0.86252882  0.88545824    -0.78700
C1191       C  0.59323892  0.89208157  0.85260627     0.82000
N1192       N  0.62548015  0.92325193  0.85585333    -0.78700
C1193       C  0.65835870  0.92340780  0.89050425     0.82100
N1194       N  0.65794564  0.89252120  0.92264191    -0.80400
C1195       C  0.65141733  0.59877251  0.63035663     0.79600
N1196       N  0.65021443  0.62625184  0.59428031    -0.78700
C1197       C  0.62588979  0.66305507  0.59468603     0.82000
N1198       N  0.60189774  0.67144099  0.63087883    -0.78700
C1199       C  0.60325338  0.64569530  0.66750514     0.82100
N1200       N  0.62833643  0.60978168  0.66710792    -0.80400
O1201       O  0.58135998  0.64022164  0.74458115    -0.72400
O1202       O  0.99459070  0.59956219  0.81353042    -0.72600
O1203       O  0.54135975  0.56516106  0.74581451    -0.72500
O1204       O  0.53323058  0.67677541  0.81320949    -0.72500
O1205       O  0.98454859  0.69277515  0.75994656    -0.72500
O1206       O  0.99683153  0.58396957  0.68981735    -0.72500
O1207       O  0.94755951  0.61408816  0.75769419    -0.72400
O1208       O  0.53494935  0.66104344  0.69163549    -0.72600
V1209       V  0.53675617  0.62104351  0.77832969     1.35200
V1210       V  0.99189717  0.63787597  0.72586644     1.35200
C1211       C  0.57260005  0.65162307  0.70343594     0.76800
C1212       C  0.95645328  0.60220689  0.79872143     0.76900
C1213       C  0.52421720  0.55835311  0.70412810     0.76700
C1214       C  0.50365399  0.70101656  0.80056644     0.76700
O1215       O  0.62731877  0.80795321  0.57136631    -0.72400
O1216       O  0.67925217  0.74501305  0.47468398    -0.72600
O1217       O  0.65244942  0.82552767  0.98744793    -0.72500
O1218       O  0.65704035  0.72503674  0.56046355    -0.72500
O1219       O  0.59523793  0.70120668  0.52911922    -0.72500
O1220       O  0.59435224  0.79752603  0.94961338    -0.72500
O1221       O  0.61984858  0.71341099  0.94353334    -0.72400
O1222       O  0.56829459  0.78309866  0.03214274    -0.72600
V1223       V  0.65304143  0.77506287  0.52292463     1.35200
V1224       V  0.59552264  0.74952327  0.98921476     1.35200
C1225       C  0.58787148  0.80728852  0.56610966     0.76800
C1226       C  0.65874626  0.71707430  0.44447718     0.76900
C1227       C  0.62366281  0.82749851  0.95440918     0.76700
C1228       C  0.62669920  0.69666444  0.55874387     0.76700
O1229       O  0.77037730  0.94162477  0.59116561    -0.72400
O1230       O  0.68273469  0.53204806  0.59440644    -0.72600
O1231       O  0.76871228  0.02586078  0.57308054    -0.72500
O1232       O  0.69215361  0.94301267  0.61171024    -0.72500
O1233       O  0.71563434  0.46334210  0.68585384    -0.72500
O1234       O  0.77892468  0.55655596  0.64471693    -0.72500
O1235       O  0.70165925  0.55013739  0.66849775    -0.72400
O1236       O  0.79540895  0.96744325  0.66195934    -0.72600
V1237       V  0.72989429  0.98664870  0.59333335     1.35200
V1238       V  0.74679196  0.50917481  0.66379667     1.35200
C1239       C  0.79723489  0.93935654  0.62620877     0.76800
C1240       C  0.67930015  0.55834128  0.63117003     0.76900
C1241       C  0.78785573  0.05589482  0.60176848     0.76700
C1242       C  0.69687204  0.93581991  0.65459798     0.76700
O1243       O  0.54723683  0.85209140  0.78977317    -0.72400
O1244       O  0.94937181  0.84221658  0.70010715    -0.72600
O1245       O  0.52727573  0.87233092  0.69972162    -0.72500
O1246       O  0.46855647  0.81983856  0.78728627    -0.72500
O1247       O  0.96201563  0.88381878  0.82615412    -0.72500
O1248       O  0.99916317  0.93464097  0.71975111    -0.72500
O1249       O  0.92621664  0.90065263  0.73743122    -0.72400
O1250       O  0.53441437  0.92118689  0.80795396    -0.72600
V1251       V  0.49793828  0.84764852  0.74494797     1.35200
V1252       V  0.98050925  0.90927702  0.77234092     1.35200
C1253       C  0.55772981  0.88885592  0.81418588     0.76800
C1254       C  0.92120794  0.87041937  0.70333330     0.76900
C1255       C  0.01917373  0.91114341  0.69124157     0.76700
C1256       C  0.96056011  0.84176409  0.82444717     0.77700
O1257       O  0.69318368  0.98895774  0.86895078    -0.72400
O1258       O  0.79186324  0.54935036  0.84091522    -0.72600
O1259       O  0.74072890  0.48017186  0.79508910    -0.72500
O1260       O  0.74258306  0.55364374  0.90887943    -0.72500
O1261       O  0.78901000  0.00950653  0.94151530    -0.72500
O1262       O  0.77462983  0.93501741  0.82778806    -0.72500
O1263       O  0.82968152  0.49941524  0.87214424    -0.72400
O1264       O  0.73304726  0.94221295  0.90291025    -0.72600
V1265       V  0.74259901  0.51626989  0.85246283     1.35200
V1266       V  0.78108683  0.97371586  0.88407848     1.35200
C1267       C  0.69635645  0.95328860  0.88876345     0.76800
C1268       C  0.82770285  0.53722153  0.85601531     0.76900
C1269       C  0.74909124  0.94542601  0.79478852     0.76700
C1270       C  0.77217403  0.04650595  0.94521666     0.76700
O1271       O  0.93560927  0.78120741  0.99381359    -0.72400
O1272       O  0.82664700  0.74189193  0.94408996    -0.72600
O1273       O  0.86073240  0.80699063  0.51039832    -0.72500
O1274       O  0.90071514  0.71381070  0.92701514    -0.72500
O1275       O  0.89753897  0.66815890  0.98079364    -0.72500
O1276       O  0.86152104  0.76114618  0.56450244    -0.72500
O1277       O  0.82568089  0.69705459  0.49909438    -0.72400
O1278       O  0.93521307  0.73458647  0.54649964    -0.72600
V1279       V  0.88123124  0.75996421  0.96971649     1.35200
V1280       V  0.88022522  0.71603562  0.52149862     1.35200
C1281       C  0.95101757  0.76903124  0.53227799     0.76800
C1282       C  0.80810003  0.71205345  0.46288941     0.76900
C1283       C  0.85688539  0.80025226  0.55297537     0.76700
C1284       C  0.90089149  0.67400116  0.93815151     0.76700
C1285       C  0.74901997  0.60797998  0.55656154    -0.09800
C1286       C  0.80127548  0.09621352  0.58240389     0.06400
C1287       C  0.83460126  0.09094561  0.55474312    -0.03600
C1288       C  0.82560818  0.07996667  0.00670484    -0.08000
C1289       C  0.78336633  0.07653316  0.98747489     0.05500
C1290       C  0.73976639  0.58758757  0.01144056    -0.03000
Br1291     Br  0.68359980  0.56333578  0.99221153    -0.02700
H1292       H  0.72331858  0.61484873  0.57715258     0.09400
H1293       H  0.85011897  0.06854656  0.98571928     0.07400
Br1294     Br  0.88967527  0.08243895  0.58355512    -0.03200
C1295       C  0.72794194  0.87257359  0.68178378    -0.09800
C1296       C  0.68879089  0.89138717  0.67082099     0.06400
C1297       C  0.66576700  0.38984538  0.71199019    -0.03600
C1298       C  0.68691263  0.40498471  0.75568366    -0.08000
C1299       C  0.72855800  0.91199166  0.75912738     0.05500
C1300       C  0.74980296  0.88602752  0.72653288    -0.03000
Br1301     Br  0.80635343  0.87057015  0.74178748    -0.02700
H1302       H  0.74500371  0.85806245  0.65384262     0.09400
H1303       H  0.66965150  0.41417349  0.78525175     0.07400
Br1304     Br  0.61844768  0.35040417  0.71123777    -0.03200
C1305       C  0.54159620  0.80594434  0.62377047    -0.09800
C1306       C  0.56207776  0.83362648  0.59581231     0.06400
C1307       C  0.53585586  0.85801426  0.06641241    -0.03600
C1308       C  0.99806023  0.83697461  0.04581343    -0.08000
C1309       C  0.98418030  0.79682749  0.56151106     0.05500
C1310       C  0.00269489  0.78545021  0.60555181    -0.03000
Br1311     Br  0.97878567  0.74223004  0.64138861    -0.02700
H1312       H  0.55907187  0.79209887  0.65283285     0.09400
H1313       H  0.98197619  0.84979974  0.01516162     0.07400
Br1314     Br  0.55990308  0.90449433  0.03493298    -0.03200
C1315       C  0.70132512  0.66193561  0.45959886    -0.09800
C1316       C  0.68184365  0.68234871  0.42202519     0.06400
C1317       C  0.70647735  0.69495244  0.88704856    -0.03600
C1318       C  0.74985010  0.70039457  0.89841348    -0.08000
C1319       C  0.76640718  0.69569958  0.44504644     0.05500
C1320       C  0.74086947  0.67967778  0.47695193    -0.03000
Br1321     Br  0.74842107  0.70533359  0.54213954    -0.02700
H1322       H  0.68178152  0.65257099  0.48612970     0.09400
H1323       H  0.76924743  0.71320379  0.87350013     0.07400
Br1324     Br  0.68105176  0.71622077  0.83066518    -0.03200
C1325       C  0.57230278  0.95218870  0.66254598    -0.09800
C1326       C  0.53354315  0.92991609  0.65060043     0.06400
C1327       C  0.00246976  0.95244773  0.62531575    -0.03600
C1328       C  0.00574783  0.50304120  0.63709464    -0.08000
C1329       C  0.53602340  0.52174453  0.67278682     0.05500
C1330       C  0.57362397  0.49957722  0.68231116    -0.03000
Br1331     Br  0.61978744  0.52277327  0.72671276    -0.02700
H1332       H  0.59893257  0.93406374  0.67465389     0.09400
H1333       H  0.97831154  0.52089461  0.62615658     0.07400
Br1334     Br  0.95156221  0.92251996  0.59680646    -0.03200
C1335       C  0.50096051  0.80645800  0.88061716    -0.09800
C1336       C  0.95940043  0.81642802  0.86567468     0.06400
C1337       C  0.93116130  0.77952163  0.85615708    -0.03600
C1338       C  0.94606878  0.73967640  0.83638644    -0.08000
C1339       C  0.48930351  0.73604407  0.83321117     0.05500
C1340       C  0.51735729  0.76816588  0.85839573    -0.03000
Br1341     Br  0.57593214  0.76506218  0.85039853    -0.02700
H1342       H  0.52226908  0.83333990  0.89610857     0.09400
H1343       H  0.92397626  0.71355503  0.82003031     0.07400
Br1344     Br  0.87222004  0.78808852  0.85048504    -0.03200
loop_ 
_geom_bond_atom_site_label_1 
_geom_bond_atom_site_label_2 
_geom_bond_distance 
_geom_bond_site_symmetry_2 
_ccdc_geom_bond_type 
C1            N2   1.370       .  A
C1            N6   1.367       .  A
C1           C36   1.482       .  S
N2            C3   1.368       .  A
C3            N4   1.371       .  A
C3           C92   1.501       .  S
N4            C5   1.368       .  A
C5            N6   1.357       .  A
C5          C108   1.505       .  S
C7            N8   1.371       .  A
C7           N12   1.356       .  A
C7          C107   1.490       .  S
N8            C9   1.378       .  A
C9           N10   1.366       .  A
C9           C63   1.502       .  S
N10          C11   1.364       .  A
C11          N12   1.354       .  A
C11          C78   1.480       .  S
C13          N14   1.360       .  A
C13          N18   1.367       .  A
C13          C51   1.494       .  S
N14          C15   1.359       .  A
C15          N16   1.367       .  A
C15          C77   1.496       .  S
N16          C17   1.372       .  A
C17          N18   1.368       .  A
C17          C91   1.500       .  S
C19          N20   1.381       .  A
C19          N24   1.372       .  A
C19          C64   1.538       .  S
N20          C21   1.380       .  A
C21          N22   1.363       .  A
C21          C52   1.508       .  S
N22          C23   1.360       .  A
C23          N24   1.375       .  A
C23          C35   1.502       .  S
O25          V33   1.913       .  S
O25          C35   1.266       .  A
O26         V705   1.902       .  S
O26          C36   1.264       .  A
O27          V33   1.875       .  S
O27          C37   1.261       .  A
O28          V33   1.894       .  S
O28          C38   1.265       .  A
O29          V34   1.880       .  S
O29         C710   1.260       .  A
O30          V34   1.867       .  S
O30         C709   1.257       .  A
O31          V34   1.925       .  S
O31          C36   1.270       .  A
O32         V706   1.926   1_455  S
O32          C35   1.273       .  A
V33         O698   1.902   1_455  S
V33         V706   2.088   1_455  T
V34         O704   1.927       .  S
V34         V705   2.088       .  T
C37         C153   1.445       .  S
C37         O702   1.257   1_455  A
C38         C163   1.470   1_455  S
C38         O701   1.260   1_455  A
O39          V47   1.906       .  S
O39          C49   1.261       .  A
O40          V47   1.879   1_556  S
O40          C50   1.268       .  A
O41         V215   1.907       .  S
O41          C51   1.262       .  A
O42          V47   1.932       .  S
O42          C52   1.269       .  A
O43         V216   1.932   1_554  S
O43          C52   1.272       .  A
O44          V48   1.923       .  S
O44          C51   1.272       .  A
O45          V48   1.880       .  S
O45         C218   1.251       .  A
O46          V48   1.838       .  S
O46         C217   1.258       .  A
V47         O209   1.907   1_554  S
V47         V216   2.085   1_554  T
V48         O211   1.933       .  S
V48         V215   2.085       .  T
C49         C130   1.453       .  S
C49         O214   1.258       .  A
C50         C140   1.456       .  S
C50         O213   1.251       .  A
O53          V61   1.910       .  S
O53          C63   1.263       .  A
O54         V397   1.953   1_545  S
O54          C64   1.277       .  A
O55          V61   1.858       .  S
O55          C65   1.265       .  A
O56          V61   1.907       .  S
O56          C66   1.263       .  A
O57          V62   1.872   1_565  S
O57         C402   1.264       .  A
O58          V62   1.890       .  S
O58         C401   1.254       .  A
O59          V62   1.943       .  S
O59          C64   1.274       .  A
O60         V398   1.941       .  S
O60          C63   1.278       .  A
V61         O390   1.952       .  S
V61         V398   2.079       .  T
V62         O396   1.937   1_545  S
V62         V397   2.082   1_545  T
C65         C110   1.454       .  S
C65         O394   1.254       .  A
C66         C120   1.484       .  S
C66         O393   1.265       .  A
O67          V75   1.932   1_455  S
O67          C77   1.275       .  A
O68         V747   1.908       .  S
O68          C78   1.269       .  A
O69          V75   1.869   1_455  S
O69         C751   1.250       .  A
O70          V75   1.847       .  S
O70         C752   1.257       .  A
O71          V76   1.922       .  S
O71          C80   1.267       .  A
O72          V76   1.894       .  S
O72          C79   1.272       .  A
O73          V76   1.910       .  S
O73          C78   1.266       .  A
O74         V748   1.916   1_455  S
O74          C77   1.265       .  A
V75         O740   1.908       .  S
V75         V748   2.072       .  T
V76         O746   1.916       .  S
V76         V747   2.072       .  T
C79         C822   1.454       .  S
C79         O741   1.250       .  A
C80         C160   1.467       .  S
C80         O742   1.257       .  A
O81         V425   1.917       .  S
O81          C91   1.267       .  A
O82          V89   1.916       .  S
O82          C92   1.267       .  A
O83          V89   1.883   1_565  S
O83         C429   1.265       .  A
O84          V89   1.891       .  S
O84         C430   1.262       .  A
O85          V90   1.875       .  S
O85          C94   1.259       .  A
O86          V90   1.898       .  S
O86          C93   1.260       .  A
O87         V426   1.933   1_545  S
O87          C92   1.273       .  A
O88          V90   1.930       .  S
O88          C91   1.273       .  A
V89         O417   1.914   1_545  S
V89         V426   2.087   1_545  T
V90         O423   1.932       .  S
V90         V425   2.086       .  T
C93         C123   1.461       .  S
C93         O419   1.264       .  A
C94         C113   1.442       .  S
C94         O420   1.260       .  A
O95         V103   1.887       .  S
O95         C273   1.264       .  A
O96         V103   1.881       .  S
O96         C274   1.257       .  A
O97         V271   1.935   1_554  S
O97         C107   1.271       .  A
O98         V103   1.938       .  S
O98         C108   1.274       .  A
O99         V272   1.911       .  S
O99         C108   1.265       .  A
O100        V104   1.904       .  S
O100        C107   1.265       .  A
O101        V104   1.859   1_556  S
O101        C106   1.260       .  A
O102        V104   1.888       .  S
O102        C105   1.261       .  A
V103        O265   1.935       .  S
V103        V272   2.085       .  T
V104        O267   1.910   1_554  S
V104        V271   2.085   1_554  T
C105        C133   1.479       .  S
C105        O263   1.264   1_554  A
C106        C143   1.452       .  S
C106        O264   1.257       .  A
C109        H116   1.084       .  S
C109        C446   1.400       .  A
C109        C282   1.404       .  A
C110        C111   1.396       .  A
C110        C445   1.402       .  A
C111        C280   1.398       .  A
C111       Br118   1.911       .  S
C112        H117   1.083       .  S
C112        C113   1.409       .  A
C112        C279   1.398       .  A
C113        C450   1.401       .  A
C114        C277   1.404       .  A
C114        C449   1.402       .  A
C114       Br115   1.923       .  S
C119        H126   1.083       .  S
C119        C120   1.417       .  A
C119        C124   1.416       .  A
C120        C457   1.398       .  A
C121        C122   1.393       .  A
C121        C456   1.398       .  A
C121       Br128   1.896       .  S
C122        H127   1.080       .  S
C122        C459   1.405       .  A
C123        C124   1.405       .  A
C123        C458   1.405       .  A
C124       Br125   1.908       .  S
C129        H136   1.083       .  S
C129        C130   1.403       .  A
C129        C806   1.403       .  A
C130        C299   1.404       .  A
C131        C298   1.404       .  A
C131        C804   1.402   1_455  A
C131       Br138   1.921       .  S
C132        H137   1.083       .  S
C132        C803   1.402       .  A
C132        C301   1.412       .  A
C133        C134   1.418       .  A
C133        C300   1.412       .  A
C134        C801   1.403       .  A
C134       Br135   1.920       .  S
C139        H146   1.078       .  S
C139        C140   1.390       .  A
C139        C144   1.392       .  A
C140        C309   1.406       .  A
C141        C142   1.400       .  A
C141        C308   1.406       .  A
C141       Br148   1.910       .  S
C142        H147   1.083       .  S
C142        C311   1.407       .  A
C143        C144   1.402       .  A
C143        C310   1.407       .  A
C144       Br145   1.933   1_556  S
C149        H156   1.078       .  S
C149        C150   1.392       .  A
C149        C490   1.389       .  A
C150        C751   1.454       .  S
C150        C823   1.404       .  A
C151        C822   1.404       .  A
C151        C488   1.388       .  A
C151       Br158   1.913       .  S
C152        H157   1.084   1_565  S
C152        C487   1.387       .  A
C152        C825   1.401   1_565  A
C153        C154   1.414   1_545  A
C153        C824   1.401   1_545  A
C154        C485   1.388       .  A
C154       Br155   1.920   1_565  S
C159        H166   1.081   1_655  S
C159        C164   1.412   1_655  A
C159        C832   1.412       .  A
C160        C161   1.405       .  A
C160        C831   1.412       .  A
C161        C162   1.404       .  A
C161       Br168   1.913       .  S
C162        H167   1.083       .  S
C162        C835   1.411       .  A
C163        C164   1.399   1_655  A
C163        C834   1.411       .  A
C164       Br165   1.912       .  S
C169        N170   1.370       .  A
C169        N174   1.367       .  A
C169        C204   1.481       .  S
N170        C171   1.368       .  A
C171        N172   1.371       .  A
C171        C260   1.501       .  S
N172        C173   1.368       .  A
C173        N174   1.357       .  A
C173        C276   1.504       .  S
C175        N176   1.371       .  A
C175        N180   1.356       .  A
C175        C275   1.491       .  S
N176        C177   1.378       .  A
C177        N178   1.366       .  A
C177        C231   1.501       .  S
N178        C179   1.364       .  A
C179        N180   1.354       .  A
C179        C246   1.480       .  S
C181        N182   1.360       .  A
C181        N186   1.367       .  A
C181        C219   1.494       .  S
N182        C183   1.359       .  A
C183        N184   1.367       .  A
C183        C245   1.496       .  S
N184        C185   1.372       .  A
C185        N186   1.368       .  A
C185        C259   1.499       .  S
C187        N188   1.381       .  A
C187        N192   1.373       .  A
C187        C232   1.538       .  S
N188        C189   1.380       .  A
C189        N190   1.363       .  A
C189        C220   1.508       .  S
N190        C191   1.360       .  A
C191        N192   1.375       .  A
C191        C203   1.502       .  S
O193        V201   1.913       .  S
O193        C203   1.266       .  A
O194        V873   1.902       .  S
O194        C204   1.264       .  A
O195        V201   1.875       .  S
O195        C205   1.261       .  A
O196        V201   1.894       .  S
O196        C206   1.265       .  A
O197        V202   1.880       .  S
O197        C878   1.259       .  A
O198        V202   1.867       .  S
O198        C877   1.257       .  A
O199        V202   1.924       .  S
O199        C204   1.270       .  A
O200        V874   1.926   1_455  S
O200        C203   1.273       .  A
V201        O866   1.902   1_455  S
V201        V874   2.088   1_455  T
V202        O872   1.926       .  S
V202        V873   2.088       .  T
C205        C321   1.445       .  S
C205        O870   1.257   1_455  A
C206        C331   1.470   1_455  S
C206        O869   1.259   1_455  A
O207        V215   1.906       .  S
O207        C217   1.261       .  A
O208        V215   1.879       .  S
O208        C218   1.269       .  A
O209        C219   1.262       .  A
O210        V215   1.932       .  S
O210        C220   1.269       .  A
O211        C220   1.272       .  A
O212        V216   1.923       .  S
O212        C219   1.272       .  A
O213        V216   1.880       .  S
O214        V216   1.838   1_554  S
C217        C298   1.453       .  S
C218        C308   1.456       .  S
O221        V229   1.910       .  S
O221        C231   1.263       .  A
O222        V565   1.953   1_545  S
O222        C232   1.277       .  A
O223        V229   1.858       .  S
O223        C233   1.265       .  A
O224        V229   1.906       .  S
O224        C234   1.263       .  A
O225        V230   1.872   1_565  S
O225        C570   1.264       .  A
O226        V230   1.890       .  S
O226        C569   1.254       .  A
O227        V230   1.943       .  S
O227        C232   1.274       .  A
O228        V566   1.941       .  S
O228        C231   1.278       .  A
V229        O558   1.952       .  S
V229        V566   2.079       .  T
V230        O564   1.937   1_545  S
V230        V565   2.082   1_545  T
C233        C278   1.454       .  S
C233        O562   1.254       .  A
C234        C288   1.484       .  S
C234        O561   1.265       .  A
O235        V243   1.932   1_455  S
O235        C245   1.275       .  A
O236        V915   1.908       .  S
O236        C246   1.269       .  A
O237        V243   1.869   1_455  S
O237        C919   1.250       .  A
O238        V243   1.847       .  S
O238        C920   1.257       .  A
O239        V244   1.922       .  S
O239        C248   1.267       .  A
O240        V244   1.893       .  S
O240        C247   1.272       .  A
O241        V244   1.911       .  S
O241        C246   1.266       .  A
O242        V916   1.916   1_455  S
O242        C245   1.265       .  A
V243        O908   1.908       .  S
V243        V916   2.072       .  T
V244        O914   1.916       .  S
V244        V915   2.072       .  T
C247        C990   1.454       .  S
C247        O909   1.250       .  A
C248        C328   1.467       .  S
C248        O910   1.257       .  A
O249        V593   1.917       .  S
O249        C259   1.267       .  A
O250        V257   1.915       .  S
O250        C260   1.267       .  A
O251        V257   1.883   1_565  S
O251        C597   1.265       .  A
O252        V257   1.891       .  S
O252        C598   1.262       .  A
O253        V258   1.875       .  S
O253        C262   1.259       .  A
O254        V258   1.898       .  S
O254        C261   1.259       .  A
O255        V594   1.933   1_545  S
O255        C260   1.273       .  A
O256        V258   1.930       .  S
O256        C259   1.273       .  A
V257        O585   1.914   1_545  S
V257        V594   2.087   1_545  T
V258        O591   1.932       .  S
V258        V593   2.087       .  T
C261        C291   1.461       .  S
C261        O587   1.264       .  A
C262        C281   1.442       .  S
C262        O588   1.260       .  A
O263        V271   1.888       .  S
O264        V271   1.881       .  S
O265        C275   1.271       .  A
O266        V271   1.937       .  S
O266        C276   1.274       .  A
O267        C276   1.264       .  A
O268        V272   1.905       .  S
O268        C275   1.265       .  A
O269        V272   1.860       .  S
O269        C274   1.260       .  A
O270        V272   1.888       .  S
O270        C273   1.262       .  A
C273        C301   1.479       .  S
C274        C311   1.452       .  S
C277        H284   1.084       .  S
C277        C614   1.400       .  A
C278        C613   1.402       .  A
C278        C279   1.396       .  A
C279       Br286   1.911       .  S
C280        H285   1.083   1_554  S
C280        C281   1.409   1_554  A
C281        C618   1.401   1_556  A
C282        C617   1.402   1_554  A
C282       Br283   1.923   1_554  S
C287        H294   1.083       .  S
C287        C288   1.417       .  A
C287        C292   1.416       .  A
C288        C625   1.398       .  A
C289        C624   1.398       .  A
C289        C290   1.393       .  A
C289       Br296   1.896       .  S
C290        H295   1.080       .  S
C290        C627   1.405       .  A
C291        C626   1.405       .  A
C291        C292   1.405       .  A
C292       Br293   1.908       .  S
C297        H304   1.083       .  S
C297        C298   1.403       .  A
C297        C974   1.403       .  A
C299        C972   1.402   1_455  A
C299       Br306   1.921       .  S
C300        H305   1.083       .  S
C300        C971   1.402       .  A
C301        C302   1.418       .  A
C302        C969   1.403       .  A
C302       Br303   1.920       .  S
C307        H314   1.080       .  S
C307        C308   1.390       .  A
C307        C312   1.391       .  A
C309        C310   1.400       .  A
C309       Br316   1.910       .  S
C310        H315   1.083       .  S
C311        C312   1.402       .  A
C312       Br313   1.933       .  S
C317        H324   1.078       .  S
C317        C318   1.392       .  A
C317        C658   1.389       .  A
C318        C919   1.454       .  S
C318        C991   1.404       .  A
C319        C990   1.404       .  A
C319        C656   1.387       .  A
C319       Br326   1.913       .  S
C320        H325   1.084   1_565  S
C320        C655   1.387       .  A
C320        C993   1.401   1_565  A
C321        C992   1.401   1_545  A
C321        C322   1.414   1_545  A
C322        C653   1.388       .  A
C322       Br323   1.920   1_565  S
C327        H334   1.081   1_655  S
C327       C1000   1.412       .  A
C327        C332   1.412   1_655  A
C328        C999   1.412       .  A
C328        C329   1.405       .  A
C329        C330   1.404       .  A
C329       Br336   1.913       .  S
C330        H335   1.083       .  S
C330       C1003   1.411       .  A
C331       C1002   1.411       .  A
C331        C332   1.399   1_655  A
C332       Br333   1.912       .  S
C337        N338   1.368       .  A
C337        N342   1.364       .  A
C337        C372   1.474       .  S
N338        C339   1.367       .  A
C339        N340   1.373       .  A
C339        C428   1.501       .  S
N340        C341   1.370       .  A
C341        N342   1.354       .  A
C341        C444   1.501       .  S
C343        N344   1.371       .  A
C343        N348   1.357       .  A
C343        C443   1.494       .  S
N344        C345   1.378       .  A
C345        N346   1.368       .  A
C345        C399   1.503       .  S
N346        C347   1.364       .  A
C347        N348   1.355       .  A
C347        C414   1.486       .  S
C349        N350   1.357       .  A
C349        N354   1.369       .  A
C349        C387   1.496       .  S
N350        C351   1.356       .  A
C351        N352   1.366       .  A
C351        C413   1.497       .  S
N352        C353   1.374       .  A
C353        N354   1.371       .  A
C353        C427   1.501       .  S
C355        N356   1.383       .  A
C355        N360   1.369       .  A
C355        C400   1.540       .  S
N356        C357   1.381       .  A
C357        N358   1.363       .  A
C357        C388   1.513       .  S
N358        C359   1.361       .  A
C359        N360   1.373       .  A
C359        C371   1.497       .  S
O361        V369   1.909       .  S
O361        C371   1.266       .  A
O362       V1041   1.899       .  S
O362        C372   1.263       .  A
O363        V369   1.870       .  S
O363        C373   1.260       .  A
O364        V369   1.891       .  S
O364        C374   1.264       .  A
O365        V370   1.881       .  S
O365       C1046   1.260       .  A
O366        V370   1.868       .  S
O366       C1045   1.257       .  A
O367        V370   1.920       .  S
O367        C372   1.268       .  A
O368       V1042   1.922   1_455  S
O368        C371   1.272       .  A
V369       O1034   1.899   1_455  S
V369       V1042   2.088   1_455  T
V370       O1040   1.922       .  S
V370       V1041   2.088       .  T
C373        C489   1.445       .  S
C373       O1038   1.257   1_455  A
C374        C499   1.464   1_455  S
C374       O1037   1.260   1_455  A
O375        V383   1.904       .  S
O375        C385   1.260       .  A
O376        V383   1.870   1_556  S
O376        C386   1.269       .  A
O377        V551   1.911       .  S
O377        C387   1.262       .  A
O378        V383   1.935       .  S
O378        C388   1.270       .  A
O379        V552   1.937   1_554  S
O379        C388   1.273       .  A
O380        V384   1.921       .  S
O380        C387   1.273       .  A
O381        V384   1.874       .  S
O381        C554   1.249       .  A
O382        V384   1.831       .  S
O382        C553   1.257       .  A
V383        O545   1.911   1_554  S
V383        V552   2.084   1_554  T
V384        O547   1.937       .  S
V384        V551   2.084       .  T
C385        C466   1.451       .  S
C385        O550   1.257       .  A
C386        C476   1.446       .  S
C386        O549   1.249       .  A
O389        V397   1.915       .  S
O389        C399   1.265       .  A
O390        C400   1.276       .  A
O391        V397   1.862   1_545  S
O391        C401   1.266       .  A
O392        V397   1.906       .  S
O392        C402   1.262       .  A
O393        V398   1.874       .  S
O394        V398   1.889       .  S
O395        V398   1.945       .  S
O395        C400   1.276       .  A
O396        C399   1.276       .  A
C401        C446   1.455       .  S
C402        C456   1.484       .  S
O403        V411   1.929   1_455  S
O403        C413   1.274       .  A
O404       V1083   1.907       .  S
O404        C414   1.268       .  A
O405        V411   1.870   1_455  S
O405       C1087   1.251       .  A
O406        V411   1.852       .  S
O406       C1088   1.258       .  A
O407        V412   1.921       .  S
O407        C416   1.267       .  A
O408        V412   1.891       .  S
O408        C415   1.270       .  A
O409        V412   1.918       .  S
O409        C414   1.268       .  A
O410       V1084   1.921   1_455  S
O410        C413   1.266       .  A
V411       O1076   1.907       .  S
V411       V1084   2.073       .  T
V412       O1082   1.921       .  S
V412       V1083   2.073       .  T
C415       C1158   1.453       .  S
C415       O1077   1.251       .  A
C416        C496   1.468       .  S
C416       O1078   1.258       .  A
O417        C427   1.266       .  A
O418        V425   1.916       .  S
O418        C428   1.267       .  A
O419        V425   1.882       .  S
O420        V425   1.884       .  S
O421        V426   1.874   1_545  S
O421        C430   1.259       .  A
O422        V426   1.893       .  S
O422        C429   1.258       .  A
O423        C428   1.273       .  A
O424        V426   1.933       .  S
O424        C427   1.273       .  A
C429        C459   1.460       .  S
C430        C449   1.451       .  S
O431        V439   1.882       .  S
O431        C609   1.262       .  A
O432        V439   1.875       .  S
O432        C610   1.255       .  A
O433        V607   1.937   1_554  S
O433        C443   1.272       .  A
O434        V439   1.932       .  S
O434        C444   1.273       .  A
O435        V608   1.912       .  S
O435        C444   1.264       .  A
O436        V440   1.905       .  S
O436        C443   1.266       .  A
O437        V440   1.857   1_556  S
O437        C442   1.260       .  A
O438        V440   1.885       .  S
O438        C441   1.262       .  A
V439        O601   1.937       .  S
V439        V608   2.086       .  T
V440        O603   1.912   1_554  S
V440        V607   2.086   1_554  T
C441        C469   1.474       .  S
C441        O599   1.262   1_554  A
C442        C479   1.439       .  S
C442        O600   1.255       .  A
C445        H452   1.076       .  S
C445        C618   1.399       .  A
C446        C447   1.399       .  A
C447        C616   1.398       .  A
C447       Br454   1.912       .  S
C448        H453   1.084       .  S
C448        C615   1.398       .  A
C448        C449   1.409       .  A
C450        C613   1.399       .  A
C450       Br451   1.932       .  S
C455        H462   1.083       .  S
C455        C456   1.416       .  A
C455        C460   1.416       .  A
C457        C458   1.393       .  A
C457       Br464   1.896       .  S
C458        H463   1.078       .  S
C459        C460   1.408       .  A
C460       Br461   1.909       .  S
C465        H472   1.082       .  S
C465        C466   1.402       .  A
C465       C1142   1.400       .  A
C466        C635   1.406       .  A
C467        C634   1.406       .  A
C467       C1140   1.402   1_455  A
C467       Br474   1.919       .  S
C468        H473   1.083       .  S
C468       C1139   1.402       .  A
C468        C637   1.412       .  A
C469        C636   1.412       .  A
C469        C470   1.416       .  A
C470       C1137   1.400       .  A
C470       Br471   1.920       .  S
C475        H482   1.084       .  S
C475        C476   1.394       .  A
C475        C480   1.388       .  A
C476        C645   1.402       .  A
C477        C644   1.402       .  A
C477        C478   1.399       .  A
C477       Br484   1.911       .  S
C478        H483   1.082       .  S
C478        C647   1.406       .  A
C479        C646   1.406       .  A
C479        C480   1.395       .  A
C480       Br481   1.943   1_556  S
C485        H492   1.077       .  S
C485        C486   1.391       .  A
C486       C1087   1.453       .  S
C486       C1159   1.404       .  A
C487       C1158   1.404       .  A
C487       Br494   1.912       .  S
C488        H493   1.084       .  S
C488       C1161   1.402       .  A
C489       C1160   1.402       .  A
C489        C490   1.416       .  A
C490       Br491   1.922       .  S
C495        H502   1.077       .  S
C495       C1168   1.412   1_455  A
C495        C500   1.413       .  A
C496       C1167   1.412       .  A
C496        C497   1.403       .  A
C497        C498   1.403       .  A
C497       Br504   1.912       .  S
C498        H503   1.083       .  S
C498       C1171   1.410       .  A
C499       C1170   1.410       .  A
C499        C500   1.399   1_655  A
C500       Br501   1.922       .  S
C505        N506   1.369       .  A
C505        N510   1.364       .  A
C505        C540   1.475       .  S
N506        C507   1.368       .  A
C507        N508   1.373       .  A
C507        C596   1.501       .  S
N508        C509   1.369       .  A
C509        N510   1.354       .  A
C509        C612   1.500       .  S
C511        N512   1.371       .  A
C511        N516   1.358       .  A
C511        C611   1.494       .  S
N512        C513   1.378       .  A
C513        N514   1.368       .  A
C513        C567   1.503       .  S
N514        C515   1.364       .  A
C515        N516   1.355       .  A
C515        C582   1.486       .  S
C517        N518   1.357       .  A
C517        N522   1.369       .  A
C517        C555   1.496       .  S
N518        C519   1.356       .  A
C519        N520   1.366       .  A
C519        C581   1.498       .  S
N520        C521   1.375       .  A
C521        N522   1.371       .  A
C521        C595   1.501       .  S
C523        N524   1.383       .  A
C523        N528   1.370       .  A
C523        C568   1.540       .  S
N524        C525   1.381       .  A
C525        N526   1.363       .  A
C525        C556   1.513       .  S
N526        C527   1.361       .  A
C527        N528   1.374       .  A
C527        C539   1.497       .  S
O529        V537   1.909       .  S
O529        C539   1.266       .  A
O530       V1209   1.899       .  S
O530        C540   1.263       .  A
O531        V537   1.871       .  S
O531        C541   1.260       .  A
O532        V537   1.891       .  S
O532        C542   1.264       .  A
O533        V538   1.881       .  S
O533       C1214   1.260       .  A
O534        V538   1.868       .  S
O534       C1213   1.257       .  A
O535        V538   1.920       .  S
O535        C540   1.268       .  A
O536       V1210   1.923   1_455  S
O536        C539   1.272       .  A
V537       O1202   1.899   1_455  S
V537       V1210   2.088   1_455  T
V538       O1208   1.923       .  S
V538       V1209   2.088       .  T
C541        C657   1.445       .  S
C541       O1206   1.257   1_455  A
C542        C667   1.465   1_455  S
C542       O1205   1.260   1_455  A
O543        V551   1.904       .  S
O543        C553   1.260       .  A
O544        V551   1.870       .  S
O544        C554   1.269       .  A
O545        C555   1.262       .  A
O546        V551   1.935       .  S
O546        C556   1.270       .  A
O547        C556   1.273       .  A
O548        V552   1.921       .  S
O548        C555   1.273       .  A
O549        V552   1.874       .  S
O550        V552   1.831   1_554  S
C553        C634   1.451       .  S
C554        C644   1.446       .  S
O557        V565   1.915       .  S
O557        C567   1.265       .  A
O558        C568   1.276       .  A
O559        V565   1.862   1_545  S
O559        C569   1.265       .  A
O560        V565   1.906       .  S
O560        C570   1.262       .  A
O561        V566   1.874       .  S
O562        V566   1.890       .  S
O563        V566   1.945       .  S
O563        C568   1.276       .  A
O564        C567   1.276       .  A
C569        C614   1.455       .  S
C570        C624   1.484       .  S
O571        V579   1.929   1_455  S
O571        C581   1.274       .  A
O572       V1251   1.907       .  S
O572        C582   1.268       .  A
O573        V579   1.870   1_455  S
O573       C1255   1.250       .  A
O574        V579   1.852       .  S
O574       C1256   1.258       .  A
O575        V580   1.921       .  S
O575        C584   1.267       .  A
O576        V580   1.891       .  S
O576        C583   1.270       .  A
O577        V580   1.919       .  S
O577        C582   1.269       .  A
O578       V1252   1.922   1_455  S
O578        C581   1.266       .  A
V579       O1244   1.908       .  S
V579       V1252   2.073       .  T
V580       O1250   1.922       .  S
V580       V1251   2.073       .  T
C583       C1326   1.453       .  S
C583       O1245   1.251       .  A
C584        C664   1.468       .  S
C584       O1246   1.258       .  A
O585        C595   1.266       .  A
O586        V593   1.916       .  S
O586        C596   1.267       .  A
O587        V593   1.882       .  S
O588        V593   1.884       .  S
O589        V594   1.874   1_545  S
O589        C598   1.259       .  A
O590        V594   1.892       .  S
O590        C597   1.258       .  A
O591        C596   1.273       .  A
O592        V594   1.934       .  S
O592        C595   1.273       .  A
C597        C627   1.459       .  S
C598        C617   1.451       .  S
O599        V607   1.882       .  S
O600        V607   1.875       .  S
O601        C611   1.272       .  A
O602        V607   1.932       .  S
O602        C612   1.273       .  A
O603        C612   1.264       .  A
O604        V608   1.906       .  S
O604        C611   1.266       .  A
O605        V608   1.857       .  S
O605        C610   1.260       .  A
O606        V608   1.885       .  S
O606        C609   1.262       .  A
C609        C637   1.474       .  S
C610        C647   1.439       .  S
C613        H620   1.076       .  S
C614        C615   1.399       .  A
C615       Br622   1.912       .  S
C616        H621   1.084   1_554  S
C616        C617   1.409   1_554  A
C618       Br619   1.932   1_554  S
C623        H630   1.083       .  S
C623        C624   1.416       .  A
C623        C628   1.416       .  A
C625        C626   1.393       .  A
C625       Br632   1.897       .  S
C626        H631   1.078       .  S
C627        C628   1.408       .  A
C628       Br629   1.909       .  S
C633        H640   1.082       .  S
C633        C634   1.402       .  A
C633       C1310   1.400       .  A
C635       C1308   1.401   1_455  A
C635       Br642   1.919       .  S
C636        H641   1.083       .  S
C636       C1307   1.402       .  A
C637        C638   1.417       .  A
C638       C1305   1.400       .  A
C638       Br639   1.920       .  S
C643        H650   1.084       .  S
C643        C644   1.394       .  A
C643        C648   1.388       .  A
C645        C646   1.399       .  A
C645       Br652   1.911       .  S
C646        H651   1.082       .  S
C647        C648   1.395       .  A
C648       Br649   1.943       .  S
C653        H660   1.077       .  S
C653        C654   1.391       .  A
C654       C1255   1.453       .  S
C654       C1327   1.404       .  A
C655       C1326   1.404       .  A
C655       Br662   1.912       .  S
C656        H661   1.084       .  S
C656       C1329   1.402       .  A
C657       C1328   1.402       .  A
C657        C658   1.416       .  A
C658       Br659   1.922       .  S
C663        H670   1.077       .  S
C663       C1336   1.412   1_455  A
C663        C668   1.413       .  A
C664       C1335   1.412       .  A
C664        C665   1.403       .  A
C665        C666   1.403       .  A
C665       Br672   1.912       .  S
C666        H671   1.083       .  S
C666       C1339   1.410       .  A
C667       C1338   1.410       .  A
C667        C668   1.399   1_655  A
C668       Br669   1.922       .  S
C673        N674   1.370       .  A
C673        N678   1.367       .  A
C673        C708   1.481       .  S
N674        C675   1.368       .  A
C675        N676   1.371       .  A
C675        C764   1.501       .  S
N676        C677   1.368       .  A
C677        N678   1.357       .  A
C677        C780   1.505       .  S
C679        N680   1.371       .  A
C679        N684   1.356       .  A
C679        C779   1.490       .  S
N680        C681   1.378       .  A
C681        N682   1.366       .  A
C681        C735   1.501       .  S
N682        C683   1.364       .  A
C683        N684   1.354       .  A
C683        C750   1.480       .  S
C685        N686   1.360       .  A
C685        N690   1.367       .  A
C685        C723   1.494       .  S
N686        C687   1.359       .  A
C687        N688   1.367       .  A
C687        C749   1.496       .  S
N688        C689   1.372       .  A
C689        N690   1.368       .  A
C689        C763   1.499       .  S
C691        N692   1.381       .  A
C691        N696   1.372       .  A
C691        C736   1.537       .  S
N692        C693   1.380       .  A
C693        N694   1.363       .  A
C693        C724   1.508       .  S
N694        C695   1.360       .  A
C695        N696   1.375       .  A
C695        C707   1.502       .  S
O697        V705   1.913       .  S
O697        C707   1.266       .  A
O698        C708   1.264       .  A
O699        V705   1.875       .  S
O699        C709   1.261       .  A
O700        V705   1.894       .  S
O700        C710   1.265       .  A
O701        V706   1.880       .  S
O702        V706   1.867       .  S
O703        V706   1.924       .  S
O703        C708   1.270       .  A
O704        C707   1.273       .  A
C709        C825   1.445       .  S
C710        C835   1.470       .  S
O711        V719   1.906       .  S
O711        C721   1.261       .  A
O712        V719   1.879   1_556  S
O712        C722   1.269       .  A
O713        V887   1.907       .  S
O713        C723   1.262       .  A
O714        V719   1.932       .  S
O714        C724   1.269       .  A
O715        V888   1.932   1_554  S
O715        C724   1.272       .  A
O716        V720   1.923       .  S
O716        C723   1.272       .  A
O717        V720   1.880       .  S
O717        C890   1.251       .  A
O718        V720   1.838       .  S
O718        C889   1.258       .  A
V719        O881   1.907   1_554  S
V719        V888   2.085   1_554  T
V720        O883   1.932       .  S
V720        V887   2.085       .  T
C721        C802   1.453       .  S
C721        O886   1.258       .  A
C722        C812   1.456       .  S
C722        O885   1.251       .  A
O725        V733   1.909       .  S
O725        C735   1.263       .  A
O726       V1069   1.952   1_545  S
O726        C736   1.277       .  A
O727        V733   1.858       .  S
O727        C737   1.265       .  A
O728        V733   1.907       .  S
O728        C738   1.263       .  A
O729        V734   1.872   1_565  S
O729       C1074   1.264       .  A
O730        V734   1.890       .  S
O730       C1073   1.254       .  A
O731        V734   1.943       .  S
O731        C736   1.274       .  A
O732       V1070   1.941       .  S
O732        C735   1.278       .  A
V733       O1062   1.952       .  S
V733       V1070   2.079       .  T
V734       O1068   1.937   1_545  S
V734       V1069   2.082   1_545  T
C737        C782   1.454       .  S
C737       O1066   1.254       .  A
C738        C792   1.484       .  S
C738       O1065   1.265       .  A
O739        V747   1.932       .  S
O739        C749   1.275       .  A
O740        C750   1.269       .  A
O741        V747   1.869       .  S
O742        V747   1.847       .  S
O743        V748   1.922       .  S
O743        C752   1.267       .  A
O744        V748   1.894       .  S
O744        C751   1.272   1_655  A
O745        V748   1.910       .  S
O745        C750   1.266       .  A
O746        C749   1.265       .  A
C752        C832   1.467       .  S
O753       V1097   1.917       .  S
O753        C763   1.267       .  A
O754        V761   1.916       .  S
O754        C764   1.267       .  A
O755        V761   1.883   1_565  S
O755       C1101   1.265       .  A
O756        V761   1.891       .  S
O756       C1102   1.262       .  A
O757        V762   1.875       .  S
O757        C766   1.259       .  A
O758        V762   1.898       .  S
O758        C765   1.260       .  A
O759       V1098   1.933   1_545  S
O759        C764   1.273       .  A
O760        V762   1.931       .  S
O760        C763   1.273       .  A
V761       O1089   1.914   1_545  S
V761       V1098   2.087   1_545  T
V762       O1095   1.933       .  S
V762       V1097   2.086       .  T
C765        C795   1.461       .  S
C765       O1091   1.264       .  A
C766        C785   1.442       .  S
C766       O1092   1.260       .  A
O767        V775   1.888       .  S
O767        C945   1.264       .  A
O768        V775   1.881       .  S
O768        C946   1.257       .  A
O769        V943   1.935   1_554  S
O769        C779   1.271       .  A
O770        V775   1.937       .  S
O770        C780   1.274       .  A
O771        V944   1.911       .  S
O771        C780   1.265       .  A
O772        V776   1.904       .  S
O772        C779   1.265       .  A
O773        V776   1.860   1_556  S
O773        C778   1.260       .  A
O774        V776   1.888       .  S
O774        C777   1.262       .  A
V775        O937   1.935       .  S
V775        V944   2.085       .  T
V776        O939   1.910   1_554  S
V776        V943   2.085   1_554  T
C777        C805   1.479       .  S
C777        O935   1.264   1_554  A
C778        C815   1.452       .  S
C778        O936   1.257       .  A
C781        H788   1.084       .  S
C781       C1118   1.400       .  A
C781        C954   1.404       .  A
C782       C1117   1.402       .  A
C782        C783   1.396       .  A
C783        C952   1.398       .  A
C783       Br790   1.911       .  S
C784        H789   1.083       .  S
C784        C951   1.398       .  A
C784        C785   1.409       .  A
C785       C1122   1.401       .  A
C786        C949   1.404       .  A
C786       C1121   1.402       .  A
C786       Br787   1.923       .  S
C791        H798   1.083       .  S
C791        C792   1.417       .  A
C791        C796   1.416       .  A
C792       C1129   1.398       .  A
C793       C1128   1.398       .  A
C793        C794   1.393       .  A
C793       Br800   1.896       .  S
C794        H799   1.080       .  S
C794       C1131   1.405       .  A
C795       C1130   1.405       .  A
C795        C796   1.405       .  A
C796       Br797   1.908       .  S
C801        H808   1.083       .  S
C801        C802   1.403       .  A
C802        C971   1.404       .  A
C803        C970   1.404       .  A
C803       Br810   1.921       .  S
C804        H809   1.083       .  S
C804        C973   1.412       .  A
C805        C972   1.412       .  A
C805        C806   1.418   1_655  A
C806       Br807   1.920   1_455  S
C811        H818   1.078       .  S
C811        C812   1.390       .  A
C811        C816   1.392       .  A
C812        C981   1.406       .  A
C813        C980   1.406       .  A
C813        C814   1.400       .  A
C813       Br820   1.910       .  S
C814        H819   1.083       .  S
C814        C983   1.407       .  A
C815        C982   1.407       .  A
C815        C816   1.402       .  A
C816       Br817   1.933   1_556  S
C821        H828   1.078       .  S
C821        C822   1.392       .  A
C821       C1162   1.389       .  A
C823       C1160   1.387       .  A
C823       Br830   1.913   1_455  S
C824        H829   1.084   1_465  S
C824       C1159   1.387       .  A
C825        C826   1.414   1_545  A
C826       C1157   1.388       .  A
C826       Br827   1.920   1_565  S
C831        H838   1.081       .  S
C831        C836   1.412       .  A
C832        C833   1.405       .  A
C833        C834   1.404       .  A
C833       Br840   1.913       .  S
C834        H839   1.083       .  S
C835        C836   1.399       .  A
C836       Br837   1.912       .  S
C841        N842   1.370       .  A
C841        N846   1.367       .  A
C841        C876   1.482       .  S
N842        C843   1.368       .  A
C843        N844   1.371       .  A
C843        C932   1.501       .  S
N844        C845   1.368       .  A
C845        N846   1.357       .  A
C845        C948   1.504       .  S
C847        N848   1.371       .  A
C847        N852   1.356       .  A
C847        C947   1.490       .  S
N848        C849   1.378       .  A
C849        N850   1.366       .  A
C849        C903   1.502       .  S
N850        C851   1.364       .  A
C851        N852   1.354       .  A
C851        C918   1.480       .  S
C853        N854   1.360       .  A
C853        N858   1.367       .  A
C853        C891   1.494       .  S
N854        C855   1.359       .  A
C855        N856   1.367       .  A
C855        C917   1.496       .  S
N856        C857   1.372       .  A
C857        N858   1.368       .  A
C857        C931   1.499       .  S
C859        N860   1.381       .  A
C859        N864   1.373       .  A
C859        C904   1.538       .  S
N860        C861   1.380       .  A
C861        N862   1.363       .  A
C861        C892   1.508       .  S
N862        C863   1.360       .  A
C863        N864   1.375       .  A
C863        C875   1.502       .  S
O865        V873   1.913       .  S
O865        C875   1.266       .  A
O866        C876   1.264       .  A
O867        V873   1.875       .  S
O867        C877   1.261       .  A
O868        V873   1.894       .  S
O868        C878   1.265       .  A
O869        V874   1.880       .  S
O870        V874   1.867       .  S
O871        V874   1.924       .  S
O871        C876   1.270       .  A
O872        C875   1.273       .  A
C877        C993   1.445       .  S
C878       C1003   1.470       .  S
O879        V887   1.906       .  S
O879        C889   1.261       .  A
O880        V887   1.879       .  S
O880        C890   1.268       .  A
O881        C891   1.262       .  A
O882        V887   1.932       .  S
O882        C892   1.269       .  A
O883        C892   1.272       .  A
O884        V888   1.923       .  S
O884        C891   1.272       .  A
O885        V888   1.880       .  S
O886        V888   1.838   1_554  S
C889        C970   1.453       .  S
C890        C980   1.456       .  S
O893        V901   1.910       .  S
O893        C903   1.263       .  A
O894       V1237   1.953   1_545  S
O894        C904   1.277       .  A
O895        V901   1.858       .  S
O895        C905   1.265       .  A
O896        V901   1.906       .  S
O896        C906   1.263       .  A
O897        V902   1.872   1_565  S
O897       C1242   1.264       .  A
O898        V902   1.890       .  S
O898       C1241   1.254       .  A
O899        V902   1.943       .  S
O899        C904   1.274       .  A
O900       V1238   1.941       .  S
O900        C903   1.278       .  A
V901       O1230   1.952       .  S
V901       V1238   2.079       .  T
V902       O1236   1.937   1_545  S
V902       V1237   2.082   1_545  T
C905        C950   1.454       .  S
C905       O1234   1.254       .  A
C906        C960   1.484       .  S
C906       O1233   1.265       .  A
O907        V915   1.932       .  S
O907        C917   1.275       .  A
O908        C918   1.269       .  A
O909        V915   1.869       .  S
O910        V915   1.847       .  S
O911        V916   1.922       .  S
O911        C920   1.267       .  A
O912        V916   1.893       .  S
O912        C919   1.272   1_655  A
O913        V916   1.910       .  S
O913        C918   1.266       .  A
O914        C917   1.265       .  A
C920       C1000   1.467       .  S
O921       V1265   1.917       .  S
O921        C931   1.267       .  A
O922        V929   1.915       .  S
O922        C932   1.267       .  A
O923        V929   1.883   1_565  S
O923       C1269   1.265       .  A
O924        V929   1.891       .  S
O924       C1270   1.262       .  A
O925        V930   1.875       .  S
O925        C934   1.259       .  A
O926        V930   1.898       .  S
O926        C933   1.259       .  A
O927       V1266   1.934   1_545  S
O927        C932   1.273       .  A
O928        V930   1.930       .  S
O928        C931   1.273       .  A
V929       O1257   1.914   1_545  S
V929       V1266   2.087   1_545  T
V930       O1263   1.932       .  S
V930       V1265   2.087       .  T
C933        C963   1.461       .  S
C933       O1259   1.264       .  A
C934        C953   1.442       .  S
C934       O1260   1.260       .  A
O935        V943   1.887       .  S
O936        V943   1.881       .  S
O937        C947   1.271       .  A
O938        V943   1.938       .  S
O938        C948   1.274       .  A
O939        C948   1.265       .  A
O940        V944   1.905       .  S
O940        C947   1.265       .  A
O941        V944   1.859       .  S
O941        C946   1.260       .  A
O942        V944   1.888       .  S
O942        C945   1.262       .  A
C945        C973   1.479       .  S
C946        C983   1.452       .  S
C949        H956   1.084       .  S
C949       C1286   1.400       .  A
C950       C1285   1.403       .  A
C950        C951   1.396       .  A
C951       Br958   1.911       .  S
C952        H957   1.083   1_554  S
C952        C953   1.409   1_554  A
C953       C1290   1.401   1_556  A
C954       C1289   1.402   1_554  A
C954       Br955   1.923   1_554  S
C959        H966   1.083       .  S
C959        C960   1.417       .  A
C959        C964   1.416       .  A
C960       C1297   1.398       .  A
C961       C1296   1.398       .  A
C961        C962   1.393       .  A
C961       Br968   1.896       .  S
C962        H967   1.080       .  S
C962       C1299   1.405       .  A
C963       C1298   1.405       .  A
C963        C964   1.405       .  A
C964       Br965   1.908       .  S
C969        H976   1.083       .  S
C969        C970   1.403       .  A
C971       Br978   1.921       .  S
C972        H977   1.083       .  S
C973        C974   1.418   1_655  A
C974       Br975   1.920   1_455  S
C979        H986   1.080       .  S
C979        C980   1.390       .  A
C979        C984   1.391       .  A
C981        C982   1.400       .  A
C981       Br988   1.910       .  S
C982        H987   1.083       .  S
C983        C984   1.402       .  A
C984       Br985   1.933       .  S
C989        H996   1.078       .  S
C989        C990   1.392       .  A
C989       C1330   1.389       .  A
C991       C1328   1.387       .  A
C991       Br998   1.913   1_455  S
C992        H997   1.084   1_465  S
C992       C1327   1.387       .  A
C993        C994   1.414   1_545  A
C994       C1325   1.388       .  A
C994       Br995   1.920   1_565  S
C999       H1006   1.081       .  S
C999       C1004   1.412       .  A
C1000      C1001   1.405       .  A
C1001      C1002   1.404       .  A
C1001     Br1008   1.913       .  S
C1002      H1007   1.083       .  S
C1003      C1004   1.399       .  A
C1004     Br1005   1.912       .  S
C1009      N1010   1.369       .  A
C1009      N1014   1.364       .  A
C1009      C1044   1.475       .  S
N1010      C1011   1.368       .  A
C1011      N1012   1.373       .  A
C1011      C1100   1.501       .  S
N1012      C1013   1.370       .  A
C1013      N1014   1.354       .  A
C1013      C1116   1.501       .  S
C1015      N1016   1.371       .  A
C1015      N1020   1.357       .  A
C1015      C1115   1.494       .  S
N1016      C1017   1.378       .  A
C1017      N1018   1.368       .  A
C1017      C1071   1.503       .  S
N1018      C1019   1.364       .  A
C1019      N1020   1.355       .  A
C1019      C1086   1.486       .  S
C1021      N1022   1.357       .  A
C1021      N1026   1.369       .  A
C1021      C1059   1.496       .  S
N1022      C1023   1.356       .  A
C1023      N1024   1.366       .  A
C1023      C1085   1.497       .  S
N1024      C1025   1.374       .  A
C1025      N1026   1.371       .  A
C1025      C1099   1.501       .  S
C1027      N1028   1.383       .  A
C1027      N1032   1.369       .  A
C1027      C1072   1.540       .  S
N1028      C1029   1.381       .  A
C1029      N1030   1.363       .  A
C1029      C1060   1.513       .  S
N1030      C1031   1.361       .  A
C1031      N1032   1.373       .  A
C1031      C1043   1.496       .  S
O1033      V1041   1.909       .  S
O1033      C1043   1.265       .  A
O1034      C1044   1.263       .  A
O1035      V1041   1.871       .  S
O1035      C1045   1.260       .  A
O1036      V1041   1.891       .  S
O1036      C1046   1.264       .  A
O1037      V1042   1.881       .  S
O1038      V1042   1.868       .  S
O1039      V1042   1.920       .  S
O1039      C1044   1.268       .  A
O1040      C1043   1.272       .  A
C1045      C1161   1.445       .  S
C1046      C1171   1.464       .  S
O1047      V1055   1.904       .  S
O1047      C1057   1.260       .  A
O1048      V1055   1.870   1_556  S
O1048      C1058   1.269       .  A
O1049      V1223   1.912       .  S
O1049      C1059   1.262       .  A
O1050      V1055   1.935       .  S
O1050      C1060   1.270       .  A
O1051      V1224   1.937   1_554  S
O1051      C1060   1.273       .  A
O1052      V1056   1.921       .  S
O1052      C1059   1.272       .  A
O1053      V1056   1.874       .  S
O1053      C1226   1.249       .  A
O1054      V1056   1.831       .  S
O1054      C1225   1.257       .  A
V1055      O1217   1.911   1_554  S
V1055      V1224   2.084   1_554  T
V1056      O1219   1.937       .  S
V1056      V1223   2.084       .  T
C1057      C1138   1.451       .  S
C1057      O1222   1.257       .  A
C1058      C1148   1.446       .  S
C1058      O1221   1.249       .  A
O1061      V1069   1.915       .  S
O1061      C1071   1.265       .  A
O1062      C1072   1.276       .  A
O1063      V1069   1.862   1_545  S
O1063      C1073   1.266       .  A
O1064      V1069   1.906       .  S
O1064      C1074   1.262       .  A
O1065      V1070   1.874       .  S
O1066      V1070   1.890       .  S
O1067      V1070   1.945       .  S
O1067      C1072   1.276       .  A
O1068      C1071   1.276       .  A
C1073      C1118   1.455       .  S
C1074      C1128   1.484       .  S
O1075      V1083   1.929       .  S
O1075      C1085   1.274       .  A
O1076      C1086   1.268       .  A
O1077      V1083   1.870       .  S
O1078      V1083   1.852       .  S
O1079      V1084   1.921       .  S
O1079      C1088   1.267       .  A
O1080      V1084   1.891       .  S
O1080      C1087   1.270   1_655  A
O1081      V1084   1.918       .  S
O1081      C1086   1.269       .  A
O1082      C1085   1.266       .  A
C1088      C1168   1.468       .  S
O1089      C1099   1.267       .  A
O1090      V1097   1.916       .  S
O1090      C1100   1.267       .  A
O1091      V1097   1.882       .  S
O1092      V1097   1.884       .  S
O1093      V1098   1.874   1_545  S
O1093      C1102   1.259       .  A
O1094      V1098   1.893       .  S
O1094      C1101   1.258       .  A
O1095      C1100   1.273       .  A
O1096      V1098   1.933       .  S
O1096      C1099   1.273       .  A
C1101      C1131   1.460       .  S
C1102      C1121   1.451       .  S
O1103      V1111   1.882       .  S
O1103      C1281   1.262       .  A
O1104      V1111   1.875       .  S
O1104      C1282   1.255       .  A
O1105      V1279   1.937   1_554  S
O1105      C1115   1.272       .  A
O1106      V1111   1.932       .  S
O1106      C1116   1.273       .  A
O1107      V1280   1.912       .  S
O1107      C1116   1.264       .  A
O1108      V1112   1.906       .  S
O1108      C1115   1.266       .  A
O1109      V1112   1.857   1_556  S
O1109      C1114   1.260       .  A
O1110      V1112   1.885       .  S
O1110      C1113   1.262       .  A
V1111      O1273   1.937       .  S
V1111      V1280   2.086       .  T
V1112      O1275   1.912   1_554  S
V1112      V1279   2.086   1_554  T
C1113      C1141   1.474       .  S
C1113      O1271   1.262   1_554  A
C1114      C1151   1.439       .  S
C1114      O1272   1.255       .  A
C1117      H1124   1.077       .  S
C1117      C1290   1.399       .  A
C1118      C1119   1.399       .  A
C1119      C1288   1.398       .  A
C1119     Br1126   1.912       .  S
C1120      H1125   1.084       .  S
C1120      C1287   1.398       .  A
C1120      C1121   1.409       .  A
C1122      C1285   1.399       .  A
C1122     Br1123   1.932       .  S
C1127      H1134   1.083       .  S
C1127      C1128   1.416       .  A
C1127      C1132   1.416       .  A
C1129      C1130   1.393       .  A
C1129     Br1136   1.896       .  S
C1130      H1135   1.078       .  S
C1131      C1132   1.408       .  A
C1132     Br1133   1.909       .  S
C1137      H1144   1.082       .  S
C1137      C1138   1.402       .  A
C1138      C1307   1.406       .  A
C1139      C1306   1.406       .  A
C1139     Br1146   1.919       .  S
C1140      H1145   1.083       .  S
C1140      C1309   1.412       .  A
C1141      C1308   1.412       .  A
C1141      C1142   1.416   1_655  A
C1142     Br1143   1.920   1_455  S
C1147      H1154   1.084       .  S
C1147      C1148   1.394       .  A
C1147      C1152   1.388       .  A
C1148      C1317   1.402       .  A
C1149      C1316   1.402       .  A
C1149      C1150   1.399       .  A
C1149     Br1156   1.911       .  S
C1150      H1155   1.082       .  S
C1150      C1319   1.406       .  A
C1151      C1318   1.406       .  A
C1151      C1152   1.395       .  A
C1152     Br1153   1.943   1_556  S
C1157      H1164   1.077       .  S
C1157      C1158   1.391       .  A
C1159     Br1166   1.912   1_455  S
C1160      H1165   1.084   1_455  S
C1161      C1162   1.416       .  A
C1162     Br1163   1.922       .  S
C1167      H1174   1.077       .  S
C1167      C1172   1.413       .  A
C1168      C1169   1.403       .  A
C1169      C1170   1.403       .  A
C1169     Br1176   1.912       .  S
C1170      H1175   1.083       .  S
C1171      C1172   1.399       .  A
C1172     Br1173   1.922       .  S
C1177      N1178   1.369       .  A
C1177      N1182   1.364       .  A
C1177      C1212   1.475       .  S
N1178      C1179   1.368       .  A
C1179      N1180   1.373       .  A
C1179      C1268   1.501       .  S
N1180      C1181   1.369       .  A
C1181      N1182   1.354       .  A
C1181      C1284   1.500       .  S
C1183      N1184   1.372       .  A
C1183      N1188   1.358       .  A
C1183      C1283   1.494       .  S
N1184      C1185   1.378       .  A
C1185      N1186   1.368       .  A
C1185      C1239   1.503       .  S
N1186      C1187   1.364       .  A
C1187      N1188   1.355       .  A
C1187      C1254   1.487       .  S
C1189      N1190   1.357       .  A
C1189      N1194   1.369       .  A
C1189      C1227   1.496       .  S
N1190      C1191   1.356       .  A
C1191      N1192   1.366       .  A
C1191      C1253   1.498       .  S
N1192      C1193   1.375       .  A
C1193      N1194   1.371       .  A
C1193      C1267   1.501       .  S
C1195      N1196   1.383       .  A
C1195      N1200   1.370       .  A
C1195      C1240   1.540       .  S
N1196      C1197   1.381       .  A
C1197      N1198   1.363       .  A
C1197      C1228   1.513       .  S
N1198      C1199   1.361       .  A
C1199      N1200   1.374       .  A
C1199      C1211   1.497       .  S
O1201      V1209   1.909       .  S
O1201      C1211   1.266       .  A
O1202      C1212   1.263       .  A
O1203      V1209   1.870       .  S
O1203      C1213   1.260       .  A
O1204      V1209   1.891       .  S
O1204      C1214   1.264       .  A
O1205      V1210   1.881       .  S
O1206      V1210   1.867       .  S
O1207      V1210   1.920       .  S
O1207      C1212   1.268       .  A
O1208      C1211   1.272       .  A
C1213      C1329   1.445       .  S
C1214      C1339   1.465       .  S
O1215      V1223   1.904       .  S
O1215      C1225   1.260       .  A
O1216      V1223   1.870       .  S
O1216      C1226   1.269       .  A
O1217      C1227   1.262       .  A
O1218      V1223   1.935       .  S
O1218      C1228   1.270       .  A
O1219      C1228   1.273       .  A
O1220      V1224   1.921       .  S
O1220      C1227   1.273       .  A
O1221      V1224   1.874       .  S
O1222      V1224   1.831   1_554  S
C1225      C1306   1.451       .  S
C1226      C1316   1.446       .  S
O1229      V1237   1.915       .  S
O1229      C1239   1.265       .  A
O1230      C1240   1.276       .  A
O1231      V1237   1.862   1_545  S
O1231      C1241   1.265       .  A
O1232      V1237   1.906       .  S
O1232      C1242   1.262       .  A
O1233      V1238   1.874       .  S
O1234      V1238   1.890       .  S
O1235      V1238   1.945       .  S
O1235      C1240   1.276       .  A
O1236      C1239   1.276       .  A
C1241      C1286   1.455       .  S
C1242      C1296   1.484       .  S
O1243      V1251   1.929       .  S
O1243      C1253   1.274       .  A
O1244      C1254   1.268       .  A
O1245      V1251   1.870       .  S
O1246      V1251   1.852       .  S
O1247      V1252   1.921       .  S
O1247      C1256   1.267       .  A
O1248      V1252   1.891       .  S
O1248      C1255   1.270   1_655  A
O1249      V1252   1.919       .  S
O1249      C1254   1.269       .  A
O1250      C1253   1.266       .  A
C1256      C1336   1.468       .  S
O1257      C1267   1.266       .  A
O1258      V1265   1.916       .  S
O1258      C1268   1.267       .  A
O1259      V1265   1.882       .  S
O1260      V1265   1.884       .  S
O1261      V1266   1.874   1_545  S
O1261      C1270   1.259       .  A
O1262      V1266   1.892       .  S
O1262      C1269   1.258       .  A
O1263      C1268   1.273       .  A
O1264      V1266   1.934       .  S
O1264      C1267   1.273       .  A
C1269      C1299   1.459       .  S
C1270      C1289   1.451       .  S
O1271      V1279   1.882       .  S
O1272      V1279   1.875       .  S
O1273      C1283   1.272       .  A
O1274      V1279   1.932       .  S
O1274      C1284   1.273       .  A
O1275      C1284   1.264       .  A
O1276      V1280   1.906       .  S
O1276      C1283   1.266       .  A
O1277      V1280   1.857       .  S
O1277      C1282   1.260       .  A
O1278      V1280   1.885       .  S
O1278      C1281   1.262       .  A
C1281      C1309   1.474       .  S
C1282      C1319   1.439       .  S
C1285      H1292   1.076       .  S
C1286      C1287   1.399       .  A
C1287     Br1294   1.912       .  S
C1288      H1293   1.084   1_554  S
C1288      C1289   1.409   1_554  A
C1290     Br1291   1.932   1_554  S
C1295      H1302   1.083       .  S
C1295      C1296   1.416       .  A
C1295      C1300   1.416       .  A
C1297      C1298   1.393       .  A
C1297     Br1304   1.897       .  S
C1298      H1303   1.078       .  S
C1299      C1300   1.408       .  A
C1300     Br1301   1.909       .  S
C1305      H1312   1.082       .  S
C1305      C1306   1.402       .  A
C1307     Br1314   1.919       .  S
C1308      H1313   1.083       .  S
C1309      C1310   1.417   1_655  A
C1310     Br1311   1.920   1_455  S
C1315      H1322   1.084       .  S
C1315      C1316   1.394       .  A
C1315      C1320   1.388       .  A
C1317      C1318   1.399       .  A
C1317     Br1324   1.911       .  S
C1318      H1323   1.082       .  S
C1319      C1320   1.395       .  A
C1320     Br1321   1.943       .  S
C1325      H1332   1.077       .  S
C1325      C1326   1.391       .  A
C1327     Br1334   1.912   1_455  S
C1328      H1333   1.084   1_455  S
C1329      C1330   1.416       .  A
C1330     Br1331   1.922       .  S
C1335      H1342   1.077       .  S
C1335      C1340   1.413       .  A
C1336      C1337   1.403       .  A
C1337      C1338   1.403       .  A
C1337     Br1344   1.912       .  S
C1338      H1343   1.083       .  S
C1339      C1340   1.399       .  A
C1340     Br1341   1.922       .  S
