geometry optimzed in LAMMPS
_audit_creation_date              2020-11-30 
_audit_creation_method            'lammps2cif' 
_symmetry_space_group_name_H-M    'P1' 
_symmetry_Int_Tables_number       1 
_symmetry_cell_setting            triclinic 
loop_ 
_symmetry_equiv_pos_as_xyz 
  x,y,z 
_cell_length_a                    43.764111113733904 
_cell_length_b                    43.99010752408632 
_cell_length_c                    29.678070095806287 
_cell_angle_alpha                 90.00026714921138 
_cell_angle_beta                  90.00346034040918 
_cell_angle_gamma                 90.00148794990335 
loop_ 
_atom_site_label 
_atom_site_type_symbol 
_atom_site_fract_x 
_atom_site_fract_y 
_atom_site_fract_z 
_atom_site_charge 
Zn1        Zn  0.03696824  0.09266912  0.25000186     1.49720
Zn2        Zn  0.46304585  0.09267881  0.24999779     1.49360
Zn3        Zn  0.50001339  0.13871519  0.30815933     1.49110
Zn4        Zn  0.50001366  0.13871514  0.19184085     1.49480
O5          O  0.00001111  0.11684120  0.24999997    -1.80000
O6          O  0.02544237  0.05070582  0.25000249    -0.70630
O7          O  0.43680965  0.09628919  0.30272385    -0.70450
O8          O  0.03822359  0.12764372  0.34799157    -0.69970
O9          O  0.47455877  0.05071292  0.24999772    -0.70650
O10         O  0.06320662  0.09627868  0.30273135    -0.70240
O11         O  0.46180800  0.12763876  0.34799509    -0.70830
O12         O  0.50001210  0.18299029  0.21190604    -0.70220
O13         O  0.43680902  0.09629053  0.19726868    -0.70980
O14         O  0.50001161  0.18299042  0.28809448    -0.70370
O15         O  0.46180759  0.12763919  0.15200085    -0.70830
O16         O  0.03822316  0.12764347  0.15201267    -0.70740
O17         O  0.06320552  0.09627686  0.19727499    -0.70530
C18         C  0.99999827  0.03735860  0.25000029     0.81260
C19         C  0.43939326  0.10972101  0.34001892     0.81750
C20         C  0.06063222  0.10971945  0.34002039     0.80710
C21         C  0.50001144  0.19677055  0.25000029     0.81090
C22         C  0.43939253  0.10972220  0.15997413     0.82220
C23         C  0.06063126  0.10971819  0.15998609     0.81270
Zn24       Zn  0.46079981  0.34751554  0.24999770     1.49720
Zn25       Zn  0.00000917  0.39309501  0.19433645     1.49360
Zn26       Zn  0.00000998  0.39309456  0.30566324     1.49110
Zn27       Zn  0.03922086  0.34751785  0.25000045     1.49480
O28         O  0.00001013  0.36966033  0.24999943    -1.80000
O29         O  0.43254581  0.35964729  0.19670328    -0.70630
O30         O  0.00000150  0.43482682  0.21244943    -0.70450
O31         O  0.46183979  0.39117694  0.34239101    -0.69970
O32         O  0.46183836  0.39117647  0.15760459    -0.70650
O33         O  0.43254648  0.35964758  0.30328862    -0.70240
O34         O  0.00000287  0.43482658  0.28755161    -0.70830
O35         O  0.06747509  0.35965095  0.30329511    -0.70220
O36         O  0.03818344  0.39118732  0.15761751    -0.70980
O37         O  0.03818493  0.39118541  0.34238616    -0.70370
O38         O  0.06747413  0.35965106  0.19670893    -0.70830
O39         O  0.02586599  0.30310564  0.25000002    -0.70740
O40         O  0.47415492  0.30310414  0.24999854    -0.70530
C41         C  0.43620018  0.37861094  0.16460316     0.81260
C42         C  0.99999920  0.44814427  0.25000070     0.81750
C43         C  0.43620139  0.37861143  0.33538929     0.80710
C44         C  0.06382206  0.37861828  0.33539086     0.81090
C45         C  0.06382060  0.37861948  0.16461424     0.82220
C46         C  0.00001050  0.28932160  0.24999943     0.81270
Zn47       Zn  0.09860958  0.49214361  0.44494264     1.49720
Zn48       Zn  0.14481493  0.03141235  0.50000879     1.49360
Zn49       Zn  0.09860986  0.49214392  0.05506550     1.49110
Zn50       Zn  0.14489080  0.45400835  0.50000841     1.49480
O51         O  0.12248130  0.49253572  0.50000636    -1.80000
O52         O  0.09535392  0.03291912  0.41557286    -0.70630
O53         O  0.13230339  0.05981058  0.05229002    -0.70450
O54         O  0.05733465  0.48279013  0.03752374    -0.69970
O55         O  0.13230226  0.05981066  0.44772773    -0.70650
O56         O  0.05733379  0.48278952  0.46247687    -0.70240
O57         O  0.09535363  0.03291927  0.08443482    -0.70830
O58         O  0.13249833  0.42650695  0.05348967    -0.70220
O59         O  0.18957849  0.01860459  0.50000762    -0.70980
O60         O  0.10636971  0.45763399  0.09792573    -0.70370
O61         O  0.18959147  0.46720378  0.50000759    -0.70830
O62         O  0.13249758  0.42650687  0.44652623    -0.70740
O63         O  0.10637083  0.45763379  0.40208339    -0.70530
C64         C  0.10981220  0.05770412  0.42057017     0.81260
C65         C  0.10981233  0.05770413  0.07944208     0.81750
C66         C  0.04431550  0.47928983  0.49999954     0.80710
C67         C  0.11662656  0.43130992  0.08881500     0.81090
C68         C  0.20345297  0.49290954  0.50000642     0.82220
C69         C  0.11662719  0.43130973  0.41119697     0.81270
Zn70       Zn  0.40141547  0.49213698  0.05505604     1.49720
Zn71       Zn  0.35521174  0.03140476  0.49999043     1.49360
Zn72       Zn  0.40141440  0.49213690  0.44493291     1.49110
Zn73       Zn  0.35513042  0.45400143  0.49999078     1.49480
O74         O  0.37754312  0.49252822  0.49999261    -1.80000
O75         O  0.40467277  0.03291321  0.08442585    -0.70630
O76         O  0.36772442  0.05980334  0.44771126    -0.70450
O77         O  0.44268957  0.48278476  0.46247407    -0.69970
O78         O  0.36772539  0.05980343  0.05227012    -0.70650
O79         O  0.44269106  0.48278491  0.03752087    -0.70240
O80         O  0.40467254  0.03291290  0.41556411    -0.70830
O81         O  0.36752234  0.42649943  0.44650983    -0.70220
O82         O  0.31044797  0.01859889  0.49999149    -0.70980
O83         O  0.39365394  0.45762550  0.40207417    -0.70370
O84         O  0.31042989  0.46719817  0.49999158    -0.70830
O85         O  0.36752302  0.42649984  0.05347257    -0.70740
O86         O  0.39365457  0.45762577  0.09791352    -0.70530
C87         C  0.39021555  0.05769799  0.07942719     0.81260
C88         C  0.39021529  0.05769775  0.42055914     0.81750
C89         C  0.45570890  0.47928566  0.49999806     0.80710
C90         C  0.38339552  0.43130161  0.41118538     0.81090
C91         C  0.29657091  0.49290468  0.49999270     0.82220
C92         C  0.38339573  0.43130201  0.08880017     0.81270
C93         C  0.26377438  0.49291499  0.49999704    -0.09150
C94         C  0.23624950  0.49291722  0.50000205    -0.10700
C95         C  0.01344062  0.47255986  0.49999812    -0.09150
C96         C  0.48658400  0.47255833  0.49999897    -0.10700
C97         C  0.10610274  0.40610273  0.11637488    -0.09150
C98         C  0.08954046  0.38941837  0.13815278    -0.10700
C99         C  0.08954243  0.38941719  0.36185518    -0.09150
C100        C  0.10610434  0.40610225  0.38363525    -0.10700
C101        C  0.39391829  0.40609402  0.11635992    -0.09150
C102        C  0.41048006  0.38940892  0.13813865    -0.10700
C103        C  0.41048161  0.38940935  0.36185083    -0.09150
C104        C  0.39391924  0.40609373  0.38362741    -0.10700
C105        C  0.09831431  0.08405551  0.10331736    -0.09150
C106        C  0.08239556  0.10080217  0.12581951    -0.10700
C107        C  0.08239666  0.10080328  0.37418991    -0.09150
C108        C  0.09831483  0.08405580  0.39669386    -0.10620
C109        C  0.40171408  0.08405110  0.10330050    -0.09150
C110        C  0.41763129  0.10080179  0.12580214    -0.10700
C111        C  0.40171460  0.08405047  0.39668734    -0.09150
C112        C  0.41763229  0.10080044  0.37418785    -0.10700
C113        C  0.00001058  0.25674119  0.24999989    -0.09150
C114        C  0.50001076  0.22934643  0.25000027    -0.10700
C115        C  0.99999301  0.00606798  0.25000082    -0.09150
C116        C  0.99999327  0.47943000  0.25000108    -0.10700
Zn117      Zn  0.03696825  0.09266913  0.75000182     1.49720
Zn118      Zn  0.46304586  0.09267880  0.74999781     1.49360
Zn119      Zn  0.50001345  0.13871519  0.80815931     1.49110
Zn120      Zn  0.50001358  0.13871514  0.69184083     1.49480
O121        O  0.00001111  0.11684120  0.74999995    -1.80000
O122        O  0.02544240  0.05070583  0.75000247    -0.70630
O123        O  0.43680967  0.09628924  0.80272387    -0.70450
O124        O  0.03822368  0.12764371  0.84799152    -0.69970
O125        O  0.47455879  0.05071292  0.74999784    -0.70650
O126        O  0.06320669  0.09627869  0.80273126    -0.70240
O127        O  0.46180809  0.12763876  0.84799511    -0.70830
O128        O  0.50001204  0.18299029  0.71190603    -0.70220
O129        O  0.43680901  0.09629045  0.69726870    -0.70980
O130        O  0.50001166  0.18299042  0.78809447    -0.70370
O131        O  0.46180748  0.12763919  0.65200088    -0.70830
O132        O  0.03822305  0.12764348  0.65201260    -0.70740
O133        O  0.06320546  0.09627689  0.69727489    -0.70530
C134        C  0.99999829  0.03735860  0.75000038     0.81260
C135        C  0.43939333  0.10972105  0.84001894     0.81750
C136        C  0.06063231  0.10971945  0.84002031     0.80710
C137        C  0.50001144  0.19677055  0.75000027     0.81090
C138        C  0.43939246  0.10972215  0.65997416     0.82220
C139        C  0.06063116  0.10971821  0.65998600     0.81270
Zn140      Zn  0.46079980  0.34751554  0.74999773     1.49720
Zn141      Zn  0.00000914  0.39309503  0.69433652     1.49360
Zn142      Zn  0.00001000  0.39309455  0.80566331     1.49110
Zn143      Zn  0.03922086  0.34751785  0.75000053     1.49480
O144        O  0.00001013  0.36966033  0.74999948    -1.80000
O145        O  0.43254579  0.35964730  0.69670331    -0.70630
O146        O  0.00000153  0.43482684  0.71244953    -0.70450
O147        O  0.46183984  0.39117688  0.84239111    -0.69970
O148        O  0.46183831  0.39117653  0.65760469    -0.70650
O149        O  0.43254650  0.35964757  0.80328866    -0.70240
O150        O  0.00000285  0.43482656  0.78755170    -0.70830
O151        O  0.06747513  0.35965098  0.80329515    -0.70220
O152        O  0.03818339  0.39118729  0.65761755    -0.70980
O153        O  0.03818497  0.39118544  0.84238620    -0.70370
O154        O  0.06747409  0.35965104  0.69670897    -0.70830
O155        O  0.02586599  0.30310565  0.75000011    -0.70740
O156        O  0.47415492  0.30310414  0.74999855    -0.70530
C157        C  0.43620014  0.37861098  0.66460324     0.81260
C158        C  0.99999920  0.44814427  0.75000081     0.81750
C159        C  0.43620143  0.37861139  0.83538936     0.80710
C160        C  0.06382211  0.37861832  0.83539089     0.81090
C161        C  0.06382055  0.37861944  0.66461427     0.82220
C162        C  0.00001050  0.28932160  0.74999948     0.81270
Zn163      Zn  0.09860976  0.49214368  0.94494260     1.49720
Zn164      Zn  0.14481508  0.03141241  0.00000880     1.49360
Zn165      Zn  0.09860970  0.49214386  0.55506550     1.49110
Zn166      Zn  0.14489093  0.45400840  0.00000841     1.49480
O167        O  0.12248146  0.49253579  0.00000635    -1.80000
O168        O  0.09535412  0.03291914  0.91557278    -0.70630
O169        O  0.13230324  0.05981053  0.55228999    -0.70450
O170        O  0.05733448  0.48279004  0.53752378    -0.69970
O171        O  0.13230240  0.05981073  0.94772772    -0.70650
O172        O  0.05733398  0.48278960  0.96247683    -0.70240
O173        O  0.09535346  0.03291925  0.58443478    -0.70830
O174        O  0.13249821  0.42650690  0.55348966    -0.70220
O175        O  0.18957864  0.01860463  0.00000762    -0.70980
O176        O  0.10636959  0.45763394  0.59792574    -0.70370
O177        O  0.18959161  0.46720384  0.00000758    -0.70830
O178        O  0.13249768  0.42650690  0.94652623    -0.70740
O179        O  0.10637100  0.45763385  0.90208335    -0.70530
C180        C  0.10981237  0.05770416  0.92057011     0.81260
C181        C  0.10981218  0.05770410  0.57944203     0.81750
C182        C  0.04431567  0.47928992  0.99999949     0.80710
C183        C  0.11662645  0.43130988  0.58881500     0.81090
C184        C  0.20345310  0.49290960  0.00000641     0.82220
C185        C  0.11662730  0.43130977  0.91119696     0.81270
Zn186      Zn  0.40141530  0.49213697  0.55505607     1.49720
Zn187      Zn  0.35521188  0.03140476  0.99999043     1.49360
Zn188      Zn  0.40141454  0.49213692  0.94493289     1.49110
Zn189      Zn  0.35513054  0.45400147  0.99999078     1.49480
O190        O  0.37754327  0.49252823  0.99999260    -1.80000
O191        O  0.40467261  0.03291319  0.58442587    -0.70630
O192        O  0.36772456  0.05980334  0.94771128    -0.70450
O193        O  0.44268972  0.48278481  0.96247402    -0.69970
O194        O  0.36772526  0.05980344  0.55227014    -0.70650
O195        O  0.44269088  0.48278485  0.53752092    -0.70240
O196        O  0.40467266  0.03291292  0.91556408    -0.70830
O197        O  0.36752242  0.42649946  0.94650985    -0.70220
O198        O  0.31044812  0.01859892  0.99999148    -0.70980
O199        O  0.39365408  0.45762549  0.90207419    -0.70370
O200        O  0.31043001  0.46719821  0.99999157    -0.70830
O201        O  0.36752294  0.42649980  0.55347258    -0.70740
O202        O  0.39365438  0.45762579  0.59791360    -0.70530
C203        C  0.39021541  0.05769799  0.57942722     0.81260
C204        C  0.39021541  0.05769776  0.92055914     0.81750
C205        C  0.45570907  0.47928573  0.99999800     0.80710
C206        C  0.38339562  0.43130162  0.91118541     0.81090
C207        C  0.29657104  0.49290472  0.99999270     0.82220
C208        C  0.38339561  0.43130200  0.58880022     0.81270
C209        C  0.26377451  0.49291504  0.99999703    -0.09150
C210        C  0.23624963  0.49291727  0.00000204    -0.10700
C211        C  0.01344080  0.47255995  0.99999805    -0.09150
C212        C  0.48658418  0.47255842  0.99999889    -0.10700
C213        C  0.10610266  0.40610268  0.61637488    -0.09150
C214        C  0.08954039  0.38941832  0.63815279    -0.10700
C215        C  0.08954249  0.38941724  0.86185519    -0.09150
C216        C  0.10610441  0.40610230  0.88363525    -0.10700
C217        C  0.39391821  0.40609402  0.61635997    -0.09150
C218        C  0.41048001  0.38940895  0.63813872    -0.10700
C219        C  0.41048166  0.38940932  0.86185089    -0.09150
C220        C  0.39391930  0.40609372  0.88362746    -0.10700
C221        C  0.09831417  0.08405549  0.60331726    -0.09150
C222        C  0.08239543  0.10080218  0.62581939    -0.10700
C223        C  0.08239678  0.10080328  0.87418980    -0.09150
C224        C  0.09831497  0.08405583  0.89669377    -0.10620
C225        C  0.40171397  0.08405108  0.60330054    -0.09150
C226        C  0.41763120  0.10080175  0.62580220    -0.10700
C227        C  0.40171470  0.08405049  0.89668736    -0.09150
C228        C  0.41763238  0.10080048  0.87418789    -0.10700
C229        C  0.00001058  0.25674119  0.74999991    -0.09150
C230        C  0.50001076  0.22934643  0.75000027    -0.10700
C231        C  0.99999305  0.00606798  0.75000096    -0.09150
C232        C  0.99999328  0.47943000  0.75000121    -0.10700
Zn233      Zn  0.03696823  0.59266913  0.25000186     1.49720
Zn234      Zn  0.46304584  0.59267879  0.24999779     1.49360
Zn235      Zn  0.50001337  0.63871519  0.30815932     1.49110
Zn236      Zn  0.50001363  0.63871513  0.19184084     1.49480
O237        O  0.00001109  0.61684120  0.24999997    -1.80000
O238        O  0.02544237  0.55070583  0.25000248    -0.70630
O239        O  0.43680964  0.59628916  0.30272386    -0.70450
O240        O  0.03822356  0.62764370  0.34799158    -0.69970
O241        O  0.47455879  0.55071291  0.24999771    -0.70650
O242        O  0.06320661  0.59627868  0.30273135    -0.70240
O243        O  0.46180797  0.62763877  0.34799507    -0.70830
O244        O  0.50001209  0.68299028  0.21190603    -0.70220
O245        O  0.43680902  0.59629051  0.19726868    -0.70980
O246        O  0.50001161  0.68299042  0.28809447    -0.70370
O247        O  0.46180756  0.62763919  0.15200086    -0.70830
O248        O  0.03822313  0.62764346  0.15201266    -0.70740
O249        O  0.06320550  0.59627687  0.19727498    -0.70530
C250        C  0.99999827  0.53735860  0.25000029     0.81260
C251        C  0.43939325  0.60972101  0.34001891     0.81750
C252        C  0.06063220  0.60971944  0.34002040     0.80710
C253        C  0.50001144  0.69677054  0.25000027     0.81090
C254        C  0.43939251  0.60972219  0.15997414     0.82220
C255        C  0.06063123  0.60971819  0.15998608     0.81270
Zn256      Zn  0.46079982  0.84751554  0.24999770     1.49720
Zn257      Zn  0.00000918  0.89309501  0.19433645     1.49360
Zn258      Zn  0.00000998  0.89309456  0.30566324     1.49110
Zn259      Zn  0.03922088  0.84751785  0.25000046     1.49480
O260        O  0.00001014  0.86966033  0.24999943    -1.80000
O261        O  0.43254583  0.85964729  0.19670328    -0.70630
O262        O  0.00000150  0.93482682  0.21244943    -0.70450
O263        O  0.46183981  0.89117693  0.34239102    -0.69970
O264        O  0.46183838  0.89117645  0.15760457    -0.70650
O265        O  0.43254650  0.85964757  0.30328862    -0.70240
O266        O  0.00000286  0.93482658  0.28755161    -0.70830
O267        O  0.06747511  0.85965097  0.30329512    -0.70220
O268        O  0.03818345  0.89118733  0.15761752    -0.70980
O269        O  0.03818493  0.89118543  0.34238616    -0.70370
O270        O  0.06747415  0.85965107  0.19670893    -0.70830
O271        O  0.02586601  0.80310565  0.25000004    -0.70740
O272        O  0.47415495  0.80310414  0.24999854    -0.70530
C273        C  0.43620020  0.87861093  0.16460316     0.81260
C274        C  0.99999919  0.94814427  0.25000070     0.81750
C275        C  0.43620141  0.87861142  0.33538930     0.80710
C276        C  0.06382207  0.87861830  0.33539087     0.81090
C277        C  0.06382062  0.87861948  0.16461424     0.82220
C278        C  0.00001053  0.78932160  0.24999944     0.81270
Zn279      Zn  0.09860960  0.99214366  0.44494264     1.49720
Zn280      Zn  0.14481491  0.53141231  0.50000879     1.49360
Zn281      Zn  0.09860989  0.99214394  0.05506550     1.49110
Zn282      Zn  0.14489081  0.95400839  0.50000841     1.49480
O283        O  0.12248132  0.99253576  0.50000636    -1.80000
O284        O  0.09535388  0.53291908  0.41557289    -0.70630
O285        O  0.13230335  0.55981056  0.05229002    -0.70450
O286        O  0.05733468  0.98279019  0.03752373    -0.69970
O287        O  0.13230223  0.55981062  0.44772773    -0.70650
O288        O  0.05733381  0.98278960  0.46247687    -0.70240
O289        O  0.09535358  0.53291926  0.08443479    -0.70830
O290        O  0.13249836  0.92650695  0.05348968    -0.70220
O291        O  0.18957847  0.51860456  0.50000762    -0.70980
O292        O  0.10636971  0.95763399  0.09792571    -0.70370
O293        O  0.18959148  0.96720381  0.50000759    -0.70830
O294        O  0.13249759  0.92650690  0.44652623    -0.70740
O295        O  0.10637083  0.95763382  0.40208340    -0.70530
C296        C  0.10981217  0.55770408  0.42057018     0.81260
C297        C  0.10981229  0.55770412  0.07944206     0.81750
C298        C  0.04431552  0.97928992  0.49999954     0.80710
C299        C  0.11662657  0.93130993  0.08881500     0.81090
C300        C  0.20345298  0.99290956  0.50000642     0.82220
C301        C  0.11662719  0.93130976  0.41119698     0.81270
Zn302      Zn  0.40141549  0.99213699  0.05505604     1.49720
Zn303      Zn  0.35521172  0.53140475  0.49999043     1.49360
Zn304      Zn  0.40141441  0.99213691  0.44493290     1.49110
Zn305      Zn  0.35513043  0.95400144  0.49999078     1.49480
O306        O  0.37754313  0.99252822  0.49999261    -1.80000
O307        O  0.40467276  0.53291321  0.08442583    -0.70630
O308        O  0.36772441  0.55980333  0.44771125    -0.70450
O309        O  0.44268958  0.98278480  0.46247408    -0.69970
O310        O  0.36772536  0.55980343  0.05227013    -0.70650
O311        O  0.44269108  0.98278495  0.03752087    -0.70240
O312        O  0.40467255  0.53291290  0.41556413    -0.70830
O313        O  0.36752234  0.92649943  0.44650983    -0.70220
O314        O  0.31044795  0.51859889  0.49999149    -0.70980
O315        O  0.39365398  0.95762549  0.40207418    -0.70370
O316        O  0.31042990  0.96719818  0.49999158    -0.70830
O317        O  0.36752304  0.92649983  0.05347257    -0.70740
O318        O  0.39365461  0.95762576  0.09791351    -0.70530
C319        C  0.39021553  0.55769799  0.07942719     0.81260
C320        C  0.39021528  0.55769775  0.42055915     0.81750
C321        C  0.45570891  0.97928571  0.49999807     0.80710
C322        C  0.38339554  0.93130160  0.41118539     0.81090
C323        C  0.29657092  0.99290469  0.49999271     0.82220
C324        C  0.38339576  0.93130200  0.08880016     0.81270
C325        C  0.26377439  0.99291500  0.49999704    -0.09150
C326        C  0.23624951  0.99291724  0.50000206    -0.10700
C327        C  0.01344064  0.97255996  0.49999811    -0.09150
C328        C  0.48658402  0.97255842  0.49999897    -0.10700
C329        C  0.10610275  0.90610273  0.11637487    -0.09150
C330        C  0.08954047  0.88941838  0.13815278    -0.10700
C331        C  0.08954243  0.88941721  0.36185519    -0.09150
C332        C  0.10610434  0.90610228  0.38363526    -0.10700
C333        C  0.39391831  0.90609400  0.11635990    -0.09150
C334        C  0.41048008  0.88940891  0.13813864    -0.10700
C335        C  0.41048163  0.88940934  0.36185084    -0.09150
C336        C  0.39391926  0.90609371  0.38362743    -0.10700
C337        C  0.09831427  0.58405549  0.10331734    -0.09150
C338        C  0.08239552  0.60080216  0.12581949    -0.10700
C339        C  0.08239662  0.60080325  0.37418992    -0.09150
C340        C  0.09831479  0.58405576  0.39669388    -0.10620
C341        C  0.40171406  0.58405109  0.10330050    -0.09150
C342        C  0.41763127  0.60080178  0.12580215    -0.10700
C343        C  0.40171459  0.58405047  0.39668734    -0.09150
C344        C  0.41763228  0.60080043  0.37418784    -0.10700
C345        C  0.00001061  0.75674119  0.24999990    -0.09150
C346        C  0.50001078  0.72934643  0.25000025    -0.10700
C347        C  0.99999302  0.50606798  0.25000082    -0.09150
C348        C  0.99999326  0.97943000  0.25000108    -0.10700
Zn349      Zn  0.03696823  0.59266913  0.75000182     1.49720
Zn350      Zn  0.46304585  0.59267878  0.74999782     1.49360
Zn351      Zn  0.50001343  0.63871519  0.80815932     1.49110
Zn352      Zn  0.50001356  0.63871514  0.69184084     1.49480
O353        O  0.00001109  0.61684120  0.74999995    -1.80000
O354        O  0.02544238  0.55070583  0.75000248    -0.70630
O355        O  0.43680966  0.59628923  0.80272388    -0.70450
O356        O  0.03822365  0.62764371  0.84799151    -0.69970
O357        O  0.47455879  0.55071291  0.74999785    -0.70650
O358        O  0.06320667  0.59627869  0.80273126    -0.70240
O359        O  0.46180806  0.62763877  0.84799510    -0.70830
O360        O  0.50001204  0.68299029  0.71190604    -0.70220
O361        O  0.43680900  0.59629044  0.69726870    -0.70980
O362        O  0.50001166  0.68299042  0.78809447    -0.70370
O363        O  0.46180746  0.62763919  0.65200090    -0.70830
O364        O  0.03822304  0.62764346  0.65201259    -0.70740
O365        O  0.06320545  0.59627687  0.69727489    -0.70530
C366        C  0.99999827  0.53735860  0.75000036     0.81260
C367        C  0.43939331  0.60972105  0.84001894     0.81750
C368        C  0.06063228  0.60971945  0.84002031     0.80710
C369        C  0.50001144  0.69677055  0.75000028     0.81090
C370        C  0.43939244  0.60972214  0.65997417     0.82220
C371        C  0.06063115  0.60971819  0.65998599     0.81270
Zn372      Zn  0.46079982  0.84751554  0.74999773     1.49720
Zn373      Zn  0.00000915  0.89309503  0.69433652     1.49360
Zn374      Zn  0.00001001  0.89309454  0.80566332     1.49110
Zn375      Zn  0.03922088  0.84751785  0.75000053     1.49480
O376        O  0.00001014  0.86966033  0.74999948    -1.80000
O377        O  0.43254580  0.85964729  0.69670331    -0.70630
O378        O  0.00000153  0.93482684  0.71244954    -0.70450
O379        O  0.46183986  0.89117687  0.84239112    -0.69970
O380        O  0.46183832  0.89117653  0.65760469    -0.70650
O381        O  0.43254652  0.85964756  0.80328866    -0.70240
O382        O  0.00000287  0.93482656  0.78755171    -0.70830
O383        O  0.06747515  0.85965098  0.80329515    -0.70220
O384        O  0.03818340  0.89118730  0.65761755    -0.70980
O385        O  0.03818498  0.89118544  0.84238621    -0.70370
O386        O  0.06747410  0.85965105  0.69670897    -0.70830
O387        O  0.02586601  0.80310565  0.75000010    -0.70740
O388        O  0.47415495  0.80310414  0.74999856    -0.70530
C389        C  0.43620016  0.87861098  0.66460323     0.81260
C390        C  0.99999921  0.94814427  0.75000082     0.81750
C391        C  0.43620145  0.87861138  0.83538936     0.80710
C392        C  0.06382213  0.87861832  0.83539090     0.81090
C393        C  0.06382056  0.87861946  0.66461426     0.82220
C394        C  0.00001053  0.78932160  0.74999946     0.81270
Zn395      Zn  0.09860980  0.99214370  0.94494259     1.49720
Zn396      Zn  0.14481505  0.53141239  0.00000879     1.49360
Zn397      Zn  0.09860972  0.99214390  0.55506550     1.49110
Zn398      Zn  0.14489096  0.95400841  0.00000841     1.49480
O399        O  0.12248149  0.99253580  0.00000635    -1.80000
O400        O  0.09535406  0.53291913  0.91557281    -0.70630
O401        O  0.13230322  0.55981049  0.55228999    -0.70450
O402        O  0.05733450  0.98279012  0.53752378    -0.69970
O403        O  0.13230236  0.55981071  0.94772771    -0.70650
O404        O  0.05733401  0.98278966  0.96247682    -0.70240
O405        O  0.09535342  0.53291921  0.58443476    -0.70830
O406        O  0.13249822  0.92650693  0.55348966    -0.70220
O407        O  0.18957861  0.51860462  0.00000762    -0.70980
O408        O  0.10636959  0.95763396  0.59792573    -0.70370
O409        O  0.18959163  0.96720385  0.00000758    -0.70830
O410        O  0.13249771  0.92650691  0.94652624    -0.70740
O411        O  0.10637101  0.95763385  0.90208336    -0.70530
C412        C  0.10981232  0.55770415  0.92057013     0.81260
C413        C  0.10981215  0.55770406  0.57944201     0.81750
C414        C  0.04431570  0.97929000  0.99999948     0.80710
C415        C  0.11662646  0.93130991  0.58881500     0.81090
C416        C  0.20345313  0.99290960  0.00000641     0.82220
C417        C  0.11662732  0.93130977  0.91119697     0.81270
Zn418      Zn  0.40141530  0.99213697  0.55505608     1.49720
Zn419      Zn  0.35521186  0.53140476  0.99999043     1.49360
Zn420      Zn  0.40141456  0.99213692  0.94493288     1.49110
Zn421      Zn  0.35513056  0.95400147  0.99999078     1.49480
O422        O  0.37754330  0.99252823  0.99999260    -1.80000
O423        O  0.40467262  0.53291319  0.58442585    -0.70630
O424        O  0.36772453  0.55980334  0.94771128    -0.70450
O425        O  0.44268975  0.98278485  0.96247402    -0.69970
O426        O  0.36772524  0.55980343  0.55227014    -0.70650
O427        O  0.44269089  0.98278489  0.53752093    -0.70240
O428        O  0.40467266  0.53291292  0.91556411    -0.70830
O429        O  0.36752244  0.92649946  0.94650985    -0.70220
O430        O  0.31044809  0.51859892  0.99999148    -0.70980
O431        O  0.39365412  0.95762548  0.90207421    -0.70370
O432        O  0.31043004  0.96719821  0.99999157    -0.70830
O433        O  0.36752295  0.92649980  0.55347258    -0.70740
O434        O  0.39365441  0.95762578  0.59791358    -0.70530
C435        C  0.39021540  0.55769798  0.57942721     0.81260
C436        C  0.39021539  0.55769776  0.92055916     0.81750
C437        C  0.45570910  0.97928578  0.99999800     0.80710
C438        C  0.38339564  0.93130161  0.91118542     0.81090
C439        C  0.29657106  0.99290472  0.99999270     0.82220
C440        C  0.38339563  0.93130199  0.58880021     0.81270
C441        C  0.26377454  0.99291504  0.99999703    -0.09150
C442        C  0.23624966  0.99291728  0.00000204    -0.10700
C443        C  0.01344082  0.97256005  0.99999803    -0.09150
C444        C  0.48658421  0.97255851  0.99999889    -0.10700
C445        C  0.10610266  0.90610271  0.61637487    -0.09150
C446        C  0.08954040  0.88941834  0.63815278    -0.10700
C447        C  0.08954250  0.88941724  0.86185520    -0.09150
C448        C  0.10610443  0.90610230  0.88363527    -0.10700
C449        C  0.39391823  0.90609401  0.61635996    -0.09150
C450        C  0.41048002  0.88940894  0.63813871    -0.10700
C451        C  0.41048168  0.88940930  0.86185090    -0.09150
C452        C  0.39391932  0.90609370  0.88362747    -0.10700
C453        C  0.09831414  0.58405546  0.60331725    -0.09150
C454        C  0.08239541  0.60080215  0.62581938    -0.10700
C455        C  0.08239674  0.60080327  0.87418981    -0.09150
C456        C  0.09831492  0.58405581  0.89669379    -0.10620
C457        C  0.40171395  0.58405107  0.60330054    -0.09150
C458        C  0.41763118  0.60080174  0.62580221    -0.10700
C459        C  0.40171469  0.58405049  0.89668738    -0.09150
C460        C  0.41763236  0.60080048  0.87418789    -0.10700
C461        C  0.00001061  0.75674119  0.74999990    -0.09150
C462        C  0.50001078  0.72934643  0.75000027    -0.10700
C463        C  0.99999303  0.50606798  0.75000095    -0.09150
C464        C  0.99999329  0.97943000  0.75000122    -0.10700
Zn465      Zn  0.53696825  0.09266911  0.25000187     1.49720
Zn466      Zn  0.96304584  0.09267881  0.24999779     1.49360
Zn467      Zn  0.00001337  0.13871520  0.30815933     1.49110
Zn468      Zn  0.00001364  0.13871514  0.19184085     1.49480
O469        O  0.50001112  0.11684120  0.24999997    -1.80000
O470        O  0.52544238  0.05070582  0.25000249    -0.70630
O471        O  0.93680964  0.09628919  0.30272386    -0.70450
O472        O  0.53822360  0.12764372  0.34799157    -0.69970
O473        O  0.97455876  0.05071292  0.24999771    -0.70650
O474        O  0.56320664  0.09627868  0.30273135    -0.70240
O475        O  0.96180798  0.12763876  0.34799509    -0.70830
O476        O  0.00001209  0.18299029  0.21190604    -0.70220
O477        O  0.93680901  0.09629053  0.19726869    -0.70980
O478        O  0.00001160  0.18299042  0.28809447    -0.70370
O479        O  0.96180757  0.12763919  0.15200085    -0.70830
O480        O  0.53822318  0.12764347  0.15201267    -0.70740
O481        O  0.56320553  0.09627685  0.19727499    -0.70530
C482        C  0.49999828  0.03735860  0.25000029     0.81260
C483        C  0.93939325  0.10972101  0.34001892     0.81750
C484        C  0.56063223  0.10971945  0.34002039     0.80710
C485        C  0.00001143  0.19677055  0.25000028     0.81090
C486        C  0.93939251  0.10972220  0.15997413     0.82220
C487        C  0.56063127  0.10971819  0.15998609     0.81270
Zn488      Zn  0.96079982  0.34751555  0.24999771     1.49720
Zn489      Zn  0.50000916  0.39309501  0.19433645     1.49360
Zn490      Zn  0.50000996  0.39309456  0.30566324     1.49110
Zn491      Zn  0.53922085  0.34751784  0.25000046     1.49480
O492        O  0.50001011  0.36966033  0.24999943    -1.80000
O493        O  0.93254582  0.35964730  0.19670329    -0.70630
O494        O  0.50000151  0.43482682  0.21244943    -0.70450
O495        O  0.96183981  0.39117694  0.34239102    -0.69970
O496        O  0.96183838  0.39117646  0.15760457    -0.70650
O497        O  0.93254650  0.35964759  0.30328863    -0.70240
O498        O  0.50000287  0.43482657  0.28755161    -0.70830
O499        O  0.56747508  0.35965096  0.30329511    -0.70220
O500        O  0.53818342  0.39118731  0.15761750    -0.70980
O501        O  0.53818490  0.39118541  0.34238617    -0.70370
O502        O  0.56747411  0.35965105  0.19670894    -0.70830
O503        O  0.52586598  0.30310564  0.25000003    -0.70740
O504        O  0.97415493  0.30310415  0.24999854    -0.70530
C505        C  0.93620020  0.37861094  0.16460316     0.81260
C506        C  0.49999921  0.44814427  0.25000070     0.81750
C507        C  0.93620141  0.37861143  0.33538930     0.80710
C508        C  0.56382204  0.37861828  0.33539087     0.81090
C509        C  0.56382059  0.37861946  0.16461423     0.82220
C510        C  0.50001049  0.28932160  0.24999944     0.81270
Zn511      Zn  0.59860958  0.49214362  0.44494264     1.49720
Zn512      Zn  0.64481494  0.03141234  0.50000879     1.49360
Zn513      Zn  0.59860986  0.49214390  0.05506549     1.49110
Zn514      Zn  0.64489079  0.45400836  0.50000841     1.49480
O515        O  0.62248130  0.49253573  0.50000636    -1.80000
O516        O  0.59535393  0.03291911  0.41557286    -0.70630
O517        O  0.63230340  0.05981058  0.05229003    -0.70450
O518        O  0.55733465  0.48279013  0.03752373    -0.69970
O519        O  0.63230227  0.05981065  0.44772773    -0.70650
O520        O  0.55733379  0.48278954  0.46247686    -0.70240
O521        O  0.59535364  0.03291928  0.08443482    -0.70830
O522        O  0.63249833  0.42650693  0.05348967    -0.70220
O523        O  0.68957849  0.01860457  0.50000762    -0.70980
O524        O  0.60636970  0.45763397  0.09792572    -0.70370
O525        O  0.68959147  0.46720378  0.50000759    -0.70830
O526        O  0.63249756  0.42650687  0.44652624    -0.70740
O527        O  0.60637083  0.45763380  0.40208338    -0.70530
C528        C  0.60981221  0.05770411  0.42057017     0.81260
C529        C  0.60981235  0.05770413  0.07944208     0.81750
C530        C  0.54431550  0.47928985  0.49999953     0.80710
C531        C  0.61662655  0.43130990  0.08881500     0.81090
C532        C  0.70345296  0.49290953  0.50000642     0.82220
C533        C  0.61662717  0.43130973  0.41119697     0.81270
Zn534      Zn  0.90141547  0.49213698  0.05505605     1.49720
Zn535      Zn  0.85521173  0.03140475  0.49999043     1.49360
Zn536      Zn  0.90141440  0.49213691  0.44493291     1.49110
Zn537      Zn  0.85513043  0.45400144  0.49999079     1.49480
O538        O  0.87754312  0.49252822  0.49999262    -1.80000
O539        O  0.90467277  0.03291321  0.08442585    -0.70630
O540        O  0.86772442  0.05980333  0.44771126    -0.70450
O541        O  0.94268957  0.48278477  0.46247409    -0.69970
O542        O  0.86772538  0.05980343  0.05227012    -0.70650
O543        O  0.94269106  0.48278490  0.03752089    -0.70240
O544        O  0.90467254  0.03291290  0.41556411    -0.70830
O545        O  0.86752235  0.42649944  0.44650983    -0.70220
O546        O  0.81044796  0.01859888  0.49999149    -0.70980
O547        O  0.89365395  0.45762551  0.40207417    -0.70370
O548        O  0.81042989  0.46719816  0.49999158    -0.70830
O549        O  0.86752303  0.42649983  0.05347257    -0.70740
O550        O  0.89365457  0.45762578  0.09791354    -0.70530
C551        C  0.89021554  0.05769799  0.07942719     0.81260
C552        C  0.89021528  0.05769775  0.42055914     0.81750
C553        C  0.95570890  0.47928566  0.49999808     0.80710
C554        C  0.88339553  0.43130162  0.41118539     0.81090
C555        C  0.79657091  0.49290467  0.49999271     0.82220
C556        C  0.88339574  0.43130201  0.08880018     0.81270
C557        C  0.76377438  0.49291498  0.49999704    -0.09150
C558        C  0.73624950  0.49291721  0.50000205    -0.10700
C559        C  0.51344062  0.47255987  0.49999810    -0.09150
C560        C  0.98658400  0.47255832  0.49999898    -0.10700
C561        C  0.60610273  0.40610271  0.11637487    -0.09150
C562        C  0.58954044  0.38941836  0.13815278    -0.10700
C563        C  0.58954241  0.38941719  0.36185519    -0.09150
C564        C  0.60610432  0.40610226  0.38363526    -0.10700
C565        C  0.89391830  0.40609402  0.11635992    -0.09150
C566        C  0.91048007  0.38940892  0.13813865    -0.10700
C567        C  0.91048163  0.38940936  0.36185084    -0.09150
C568        C  0.89391926  0.40609373  0.38362742    -0.10700
C569        C  0.59831433  0.08405551  0.10331737    -0.09150
C570        C  0.58239557  0.10080217  0.12581952    -0.10700
C571        C  0.58239667  0.10080328  0.37418991    -0.09150
C572        C  0.59831484  0.08405580  0.39669386    -0.10620
C573        C  0.90171407  0.08405109  0.10330050    -0.09150
C574        C  0.91763128  0.10080179  0.12580214    -0.10700
C575        C  0.90171459  0.08405047  0.39668734    -0.09150
C576        C  0.91763228  0.10080044  0.37418785    -0.10700
C577        C  0.50001058  0.25674119  0.24999989    -0.09150
C578        C  0.00001076  0.22934643  0.25000026    -0.10700
C579        C  0.49999302  0.00606797  0.25000083    -0.09150
C580        C  0.49999330  0.47943000  0.25000108    -0.10700
Zn581      Zn  0.53696826  0.09266913  0.75000182     1.49720
Zn582      Zn  0.96304585  0.09267880  0.74999781     1.49360
Zn583      Zn  0.00001344  0.13871519  0.80815932     1.49110
Zn584      Zn  0.00001357  0.13871514  0.69184083     1.49480
O585        O  0.50001112  0.11684120  0.74999995    -1.80000
O586        O  0.52544241  0.05070582  0.75000248    -0.70630
O587        O  0.93680966  0.09628924  0.80272388    -0.70450
O588        O  0.53822370  0.12764371  0.84799151    -0.69970
O589        O  0.97455878  0.05071292  0.74999785    -0.70650
O590        O  0.56320671  0.09627869  0.80273126    -0.70240
O591        O  0.96180808  0.12763877  0.84799511    -0.70830
O592        O  0.00001203  0.18299029  0.71190603    -0.70220
O593        O  0.93680900  0.09629045  0.69726871    -0.70980
O594        O  0.00001166  0.18299042  0.78809447    -0.70370
O595        O  0.96180747  0.12763919  0.65200089    -0.70830
O596        O  0.53822307  0.12764348  0.65201260    -0.70740
O597        O  0.56320548  0.09627688  0.69727489    -0.70530
C598        C  0.49999830  0.03735860  0.75000038     0.81260
C599        C  0.93939332  0.10972105  0.84001894     0.81750
C600        C  0.56063233  0.10971945  0.84002030     0.80710
C601        C  0.00001143  0.19677055  0.75000028     0.81090
C602        C  0.93939244  0.10972215  0.65997417     0.82220
C603        C  0.56063118  0.10971821  0.65998600     0.81270
Zn604      Zn  0.96079982  0.34751555  0.74999772     1.49720
Zn605      Zn  0.50000913  0.39309503  0.69433653     1.49360
Zn606      Zn  0.50000999  0.39309454  0.80566332     1.49110
Zn607      Zn  0.53922085  0.34751785  0.75000053     1.49480
O608        O  0.50001011  0.36966033  0.74999949    -1.80000
O609        O  0.93254580  0.35964731  0.69670331    -0.70630
O610        O  0.50000153  0.43482684  0.71244954    -0.70450
O611        O  0.96183986  0.39117688  0.84239112    -0.69970
O612        O  0.96183833  0.39117653  0.65760467    -0.70650
O613        O  0.93254652  0.35964758  0.80328865    -0.70240
O614        O  0.50000286  0.43482656  0.78755172    -0.70830
O615        O  0.56747512  0.35965097  0.80329515    -0.70220
O616        O  0.53818337  0.39118729  0.65761754    -0.70980
O617        O  0.53818495  0.39118542  0.84238623    -0.70370
O618        O  0.56747407  0.35965104  0.69670897    -0.70830
O619        O  0.52586598  0.30310564  0.75000010    -0.70740
O620        O  0.97415493  0.30310415  0.74999855    -0.70530
C621        C  0.93620016  0.37861099  0.66460323     0.81260
C622        C  0.49999922  0.44814427  0.75000083     0.81750
C623        C  0.93620145  0.37861139  0.83538936     0.80710
C624        C  0.56382210  0.37861830  0.83539090     0.81090
C625        C  0.56382053  0.37861944  0.66461426     0.82220
C626        C  0.50001049  0.28932160  0.74999947     0.81270
Zn627      Zn  0.59860977  0.49214366  0.94494260     1.49720
Zn628      Zn  0.64481509  0.03141241  0.00000880     1.49360
Zn629      Zn  0.59860970  0.49214387  0.55506550     1.49110
Zn630      Zn  0.64489093  0.45400838  0.00000841     1.49480
O631        O  0.62248146  0.49253577  0.00000635    -1.80000
O632        O  0.59535412  0.03291915  0.91557278    -0.70630
O633        O  0.63230326  0.05981052  0.55228999    -0.70450
O634        O  0.55733448  0.48279006  0.53752378    -0.69970
O635        O  0.63230241  0.05981073  0.94772772    -0.70650
O636        O  0.55733398  0.48278960  0.96247682    -0.70240
O637        O  0.59535347  0.03291924  0.58443478    -0.70830
O638        O  0.63249820  0.42650691  0.55348966    -0.70220
O639        O  0.68957864  0.01860462  0.00000762    -0.70980
O640        O  0.60636958  0.45763394  0.59792574    -0.70370
O641        O  0.68959161  0.46720382  0.00000758    -0.70830
O642        O  0.63249768  0.42650688  0.94652624    -0.70740
O643        O  0.60637099  0.45763383  0.90208335    -0.70530
C644        C  0.60981238  0.05770416  0.92057011     0.81260
C645        C  0.60981219  0.05770409  0.57944203     0.81750
C646        C  0.54431567  0.47928993  0.99999948     0.80710
C647        C  0.61662644  0.43130989  0.58881500     0.81090
C648        C  0.70345311  0.49290957  0.00000641     0.82220
C649        C  0.61662730  0.43130975  0.91119696     0.81270
Zn650      Zn  0.90141530  0.49213697  0.55505608     1.49720
Zn651      Zn  0.85521188  0.03140475  0.99999043     1.49360
Zn652      Zn  0.90141455  0.49213692  0.94493290     1.49110
Zn653      Zn  0.85513055  0.45400147  0.99999078     1.49480
O654        O  0.87754328  0.49252823  0.99999261    -1.80000
O655        O  0.90467261  0.03291319  0.58442587    -0.70630
O656        O  0.86772455  0.05980334  0.94771129    -0.70450
O657        O  0.94268973  0.48278480  0.96247404    -0.69970
O658        O  0.86772525  0.05980343  0.55227014    -0.70650
O659        O  0.94269088  0.48278485  0.53752094    -0.70240
O660        O  0.90467266  0.03291292  0.91556408    -0.70830
O661        O  0.86752244  0.42649946  0.94650985    -0.70220
O662        O  0.81044811  0.01859891  0.99999148    -0.70980
O663        O  0.89365409  0.45762550  0.90207419    -0.70370
O664        O  0.81043002  0.46719819  0.99999157    -0.70830
O665        O  0.86752295  0.42649980  0.55347258    -0.70740
O666        O  0.89365438  0.45762580  0.59791361    -0.70530
C667        C  0.89021540  0.05769798  0.57942722     0.81260
C668        C  0.89021540  0.05769776  0.92055914     0.81750
C669        C  0.95570907  0.47928571  0.99999802     0.80710
C670        C  0.88339563  0.43130162  0.91118541     0.81090
C671        C  0.79657104  0.49290471  0.99999270     0.82220
C672        C  0.88339562  0.43130200  0.58880022     0.81270
C673        C  0.76377451  0.49291502  0.99999703    -0.09150
C674        C  0.73624964  0.49291725  0.00000204    -0.10700
C675        C  0.51344079  0.47255997  0.99999803    -0.09150
C676        C  0.98658418  0.47255840  0.99999891    -0.10700
C677        C  0.60610264  0.40610269  0.61637488    -0.09150
C678        C  0.58954038  0.38941833  0.63815279    -0.10700
C679        C  0.58954247  0.38941722  0.86185521    -0.09150
C680        C  0.60610440  0.40610228  0.88363526    -0.10700
C681        C  0.89391822  0.40609403  0.61635997    -0.09150
C682        C  0.91048002  0.38940896  0.63813871    -0.10700
C683        C  0.91048168  0.38940932  0.86185090    -0.09150
C684        C  0.89391932  0.40609372  0.88362746    -0.10700
C685        C  0.59831418  0.08405549  0.60331726    -0.09150
C686        C  0.58239545  0.10080218  0.62581939    -0.10700
C687        C  0.58239679  0.10080329  0.87418980    -0.09150
C688        C  0.59831498  0.08405583  0.89669377    -0.10620
C689        C  0.90171395  0.08405107  0.60330055    -0.09150
C690        C  0.91763118  0.10080175  0.62580220    -0.10700
C691        C  0.90171469  0.08405049  0.89668737    -0.09150
C692        C  0.91763237  0.10080048  0.87418789    -0.10700
C693        C  0.50001058  0.25674119  0.74999991    -0.09150
C694        C  0.00001076  0.22934644  0.75000027    -0.10700
C695        C  0.49999305  0.00606797  0.75000097    -0.09150
C696        C  0.49999331  0.47943000  0.75000123    -0.10700
Zn697      Zn  0.53696825  0.59266913  0.25000186     1.49720
Zn698      Zn  0.96304582  0.59267880  0.24999780     1.49360
Zn699      Zn  0.00001336  0.63871520  0.30815934     1.49110
Zn700      Zn  0.00001362  0.63871514  0.19184085     1.49480
O701        O  0.50001110  0.61684119  0.24999997    -1.80000
O702        O  0.52544240  0.55070583  0.25000248    -0.70630
O703        O  0.93680962  0.59628918  0.30272387    -0.70450
O704        O  0.53822357  0.62764370  0.34799158    -0.69970
O705        O  0.97455876  0.55071292  0.24999772    -0.70650
O706        O  0.56320663  0.59627870  0.30273135    -0.70240
O707        O  0.96180797  0.62763877  0.34799509    -0.70830
O708        O  0.00001208  0.68299029  0.21190605    -0.70220
O709        O  0.93680900  0.59629052  0.19726869    -0.70980
O710        O  0.00001161  0.68299042  0.28809449    -0.70370
O711        O  0.96180755  0.62763920  0.15200087    -0.70830
O712        O  0.53822314  0.62764345  0.15201265    -0.70740
O713        O  0.56320552  0.59627687  0.19727498    -0.70530
C714        C  0.49999830  0.53735860  0.25000029     0.81260
C715        C  0.93939324  0.60972102  0.34001892     0.81750
C716        C  0.56063221  0.60971945  0.34002040     0.80710
C717        C  0.00001144  0.69677055  0.25000029     0.81090
C718        C  0.93939250  0.60972220  0.15997414     0.82220
C719        C  0.56063124  0.60971819  0.15998607     0.81270
Zn720      Zn  0.96079984  0.84751554  0.24999771     1.49720
Zn721      Zn  0.50000917  0.89309501  0.19433645     1.49360
Zn722      Zn  0.50000997  0.89309456  0.30566324     1.49110
Zn723      Zn  0.53922087  0.84751785  0.25000046     1.49480
O724        O  0.50001013  0.86966033  0.24999943    -1.80000
O725        O  0.93254584  0.85964729  0.19670328    -0.70630
O726        O  0.50000149  0.93482682  0.21244943    -0.70450
O727        O  0.96183982  0.89117693  0.34239103    -0.69970
O728        O  0.96183839  0.89117645  0.15760457    -0.70650
O729        O  0.93254651  0.85964758  0.30328862    -0.70240
O730        O  0.50000286  0.93482657  0.28755161    -0.70830
O731        O  0.56747510  0.85965096  0.30329512    -0.70220
O732        O  0.53818344  0.89118733  0.15761751    -0.70980
O733        O  0.53818492  0.89118542  0.34238616    -0.70370
O734        O  0.56747413  0.85965107  0.19670893    -0.70830
O735        O  0.52586600  0.80310565  0.25000003    -0.70740
O736        O  0.97415496  0.80310415  0.24999855    -0.70530
C737        C  0.93620022  0.87861093  0.16460315     0.81260
C738        C  0.49999919  0.94814427  0.25000070     0.81750
C739        C  0.93620142  0.87861142  0.33538930     0.80710
C740        C  0.56382206  0.87861829  0.33539087     0.81090
C741        C  0.56382061  0.87861948  0.16461424     0.82220
C742        C  0.50001052  0.78932160  0.24999943     0.81270
Zn743      Zn  0.59860960  0.99214365  0.44494264     1.49720
Zn744      Zn  0.64481491  0.53141232  0.50000879     1.49360
Zn745      Zn  0.59860989  0.99214394  0.05506550     1.49110
Zn746      Zn  0.64489081  0.95400837  0.50000841     1.49480
O747        O  0.62248132  0.99253575  0.50000636    -1.80000
O748        O  0.59535388  0.53291910  0.41557288    -0.70630
O749        O  0.63230336  0.55981054  0.05229002    -0.70450
O750        O  0.55733468  0.98279020  0.03752373    -0.69970
O751        O  0.63230224  0.55981062  0.44772773    -0.70650
O752        O  0.55733381  0.98278960  0.46247687    -0.70240
O753        O  0.59535359  0.53291924  0.08443479    -0.70830
O754        O  0.63249835  0.92650695  0.05348968    -0.70220
O755        O  0.68957847  0.51860456  0.50000762    -0.70980
O756        O  0.60636971  0.95763399  0.09792571    -0.70370
O757        O  0.68959148  0.96720379  0.50000759    -0.70830
O758        O  0.63249758  0.92650689  0.44652624    -0.70740
O759        O  0.60637083  0.95763381  0.40208340    -0.70530
C760        C  0.60981217  0.55770409  0.42057018     0.81260
C761        C  0.60981230  0.55770410  0.07944206     0.81750
C762        C  0.54431552  0.97928993  0.49999954     0.80710
C763        C  0.61662656  0.93130993  0.08881500     0.81090
C764        C  0.70345298  0.99290955  0.50000642     0.82220
C765        C  0.61662718  0.93130975  0.41119698     0.81270
Zn766      Zn  0.90141549  0.99213698  0.05505604     1.49720
Zn767      Zn  0.85521172  0.53140475  0.49999043     1.49360
Zn768      Zn  0.90141441  0.99213691  0.44493290     1.49110
Zn769      Zn  0.85513044  0.95400143  0.49999078     1.49480
O770        O  0.87754313  0.99252822  0.49999261    -1.80000
O771        O  0.90467276  0.53291321  0.08442583    -0.70630
O772        O  0.86772440  0.55980333  0.44771125    -0.70450
O773        O  0.94268958  0.98278480  0.46247408    -0.69970
O774        O  0.86772536  0.55980342  0.05227013    -0.70650
O775        O  0.94269108  0.98278495  0.03752087    -0.70240
O776        O  0.90467255  0.53291291  0.41556415    -0.70830
O777        O  0.86752235  0.92649942  0.44650983    -0.70220
O778        O  0.81044795  0.51859888  0.49999149    -0.70980
O779        O  0.89365398  0.95762549  0.40207418    -0.70370
O780        O  0.81042991  0.96719816  0.49999158    -0.70830
O781        O  0.86752304  0.92649983  0.05347257    -0.70740
O782        O  0.89365462  0.95762576  0.09791351    -0.70530
C783        C  0.89021553  0.55769799  0.07942718     0.81260
C784        C  0.89021528  0.55769775  0.42055915     0.81750
C785        C  0.95570891  0.97928571  0.49999807     0.80710
C786        C  0.88339555  0.93130160  0.41118539     0.81090
C787        C  0.79657092  0.99290467  0.49999270     0.82220
C788        C  0.88339577  0.93130200  0.08880016     0.81270
C789        C  0.76377439  0.99291498  0.49999704    -0.09150
C790        C  0.73624951  0.99291721  0.50000205    -0.10700
C791        C  0.51344064  0.97255997  0.49999811    -0.09150
C792        C  0.98658402  0.97255841  0.49999897    -0.10700
C793        C  0.60610274  0.90610274  0.11637487    -0.09150
C794        C  0.58954046  0.88941838  0.13815278    -0.10700
C795        C  0.58954242  0.88941721  0.36185519    -0.09150
C796        C  0.60610433  0.90610227  0.38363527    -0.10700
C797        C  0.89391832  0.90609400  0.11635990    -0.09150
C798        C  0.91048009  0.88940891  0.13813864    -0.10700
C799        C  0.91048164  0.88940934  0.36185085    -0.09150
C800        C  0.89391927  0.90609371  0.38362743    -0.10700
C801        C  0.59831428  0.58405548  0.10331734    -0.09150
C802        C  0.58239553  0.60080215  0.12581948    -0.10700
C803        C  0.58239663  0.60080327  0.37418992    -0.09150
C804        C  0.59831480  0.58405578  0.39669388    -0.10620
C805        C  0.90171406  0.58405110  0.10330049    -0.09150
C806        C  0.91763126  0.60080179  0.12580215    -0.10700
C807        C  0.90171458  0.58405048  0.39668735    -0.09150
C808        C  0.91763227  0.60080044  0.37418786    -0.10700
C809        C  0.50001060  0.75674119  0.24999988    -0.09150
C810        C  0.00001078  0.72934644  0.25000027    -0.10700
C811        C  0.49999306  0.50606797  0.25000082    -0.09150
C812        C  0.49999326  0.97943000  0.25000108    -0.10700
Zn813      Zn  0.53696825  0.59266913  0.75000182     1.49720
Zn814      Zn  0.96304583  0.59267880  0.74999780     1.49360
Zn815      Zn  0.00001342  0.63871520  0.80815931     1.49110
Zn816      Zn  0.00001356  0.63871514  0.69184082     1.49480
O817        O  0.50001110  0.61684120  0.74999996    -1.80000
O818        O  0.52544241  0.55070583  0.75000248    -0.70630
O819        O  0.93680965  0.59628923  0.80272387    -0.70450
O820        O  0.53822366  0.62764370  0.84799153    -0.69970
O821        O  0.97455876  0.55071292  0.74999782    -0.70650
O822        O  0.56320669  0.59627869  0.80273127    -0.70240
O823        O  0.96180805  0.62763878  0.84799509    -0.70830
O824        O  0.00001204  0.68299029  0.71190602    -0.70220
O825        O  0.93680898  0.59629046  0.69726870    -0.70980
O826        O  0.00001165  0.68299042  0.78809446    -0.70370
O827        O  0.96180745  0.62763920  0.65200088    -0.70830
O828        O  0.53822304  0.62764346  0.65201260    -0.70740
O829        O  0.56320546  0.59627689  0.69727490    -0.70530
C830        C  0.49999831  0.53735860  0.75000038     0.81260
C831        C  0.93939330  0.60972105  0.84001894     0.81750
C832        C  0.56063230  0.60971944  0.84002032     0.80710
C833        C  0.00001144  0.69677055  0.75000026     0.81090
C834        C  0.93939243  0.60972216  0.65997416     0.82220
C835        C  0.56063115  0.60971820  0.65998599     0.81270
Zn836      Zn  0.96079983  0.84751554  0.74999772     1.49720
Zn837      Zn  0.50000914  0.89309503  0.69433653     1.49360
Zn838      Zn  0.50001000  0.89309454  0.80566332     1.49110
Zn839      Zn  0.53922087  0.84751785  0.75000053     1.49480
O840        O  0.50001013  0.86966033  0.74999949    -1.80000
O841        O  0.93254581  0.85964730  0.69670331    -0.70630
O842        O  0.50000153  0.93482684  0.71244954    -0.70450
O843        O  0.96183987  0.89117687  0.84239112    -0.69970
O844        O  0.96183834  0.89117652  0.65760468    -0.70650
O845        O  0.93254653  0.85964757  0.80328866    -0.70240
O846        O  0.50000286  0.93482656  0.78755172    -0.70830
O847        O  0.56747514  0.85965099  0.80329515    -0.70220
O848        O  0.53818338  0.89118730  0.65761755    -0.70980
O849        O  0.53818497  0.89118544  0.84238622    -0.70370
O850        O  0.56747409  0.85965105  0.69670897    -0.70830
O851        O  0.52586600  0.80310565  0.75000011    -0.70740
O852        O  0.97415496  0.80310415  0.74999855    -0.70530
C853        C  0.93620017  0.87861098  0.66460323     0.81260
C854        C  0.49999921  0.94814427  0.75000083     0.81750
C855        C  0.93620146  0.87861138  0.83538936     0.80710
C856        C  0.56382211  0.87861832  0.83539090     0.81090
C857        C  0.56382055  0.87861945  0.66461427     0.82220
C858        C  0.50001052  0.78932160  0.74999948     0.81270
Zn859      Zn  0.59860980  0.99214370  0.94494259     1.49720
Zn860      Zn  0.64481506  0.53141237  0.00000880     1.49360
Zn861      Zn  0.59860973  0.99214389  0.55506551     1.49110
Zn862      Zn  0.64489095  0.95400841  0.00000841     1.49480
O863        O  0.62248149  0.99253581  0.00000635    -1.80000
O864        O  0.59535407  0.53291912  0.91557280    -0.70630
O865        O  0.63230322  0.55981049  0.55228999    -0.70450
O866        O  0.55733450  0.98279012  0.53752378    -0.69970
O867        O  0.63230237  0.55981069  0.94772772    -0.70650
O868        O  0.55733401  0.98278967  0.96247682    -0.70240
O869        O  0.59535342  0.53291922  0.58443475    -0.70830
O870        O  0.63249822  0.92650692  0.55348966    -0.70220
O871        O  0.68957861  0.51860460  0.00000762    -0.70980
O872        O  0.60636958  0.95763396  0.59792573    -0.70370
O873        O  0.68959163  0.96720384  0.00000758    -0.70830
O874        O  0.63249770  0.92650691  0.94652624    -0.70740
O875        O  0.60637101  0.95763385  0.90208336    -0.70530
C876        C  0.60981233  0.55770413  0.92057013     0.81260
C877        C  0.60981215  0.55770407  0.57944201     0.81750
C878        C  0.54431570  0.97929001  0.99999948     0.80710
C879        C  0.61662645  0.93130990  0.58881499     0.81090
C880        C  0.70345313  0.99290959  0.00000641     0.82220
C881        C  0.61662731  0.93130977  0.91119697     0.81270
Zn882      Zn  0.90141530  0.99213697  0.55505608     1.49720
Zn883      Zn  0.85521186  0.53140475  0.99999043     1.49360
Zn884      Zn  0.90141456  0.99213692  0.94493288     1.49110
Zn885      Zn  0.85513056  0.95400147  0.99999078     1.49480
O886        O  0.87754330  0.99252823  0.99999260    -1.80000
O887        O  0.90467262  0.53291320  0.58442584    -0.70630
O888        O  0.86772453  0.55980333  0.94771128    -0.70450
O889        O  0.94268975  0.98278485  0.96247402    -0.69970
O890        O  0.86772523  0.55980343  0.55227014    -0.70650
O891        O  0.94269089  0.98278489  0.53752093    -0.70240
O892        O  0.90467267  0.53291292  0.91556412    -0.70830
O893        O  0.86752244  0.92649945  0.94650985    -0.70220
O894        O  0.81044809  0.51859891  0.99999148    -0.70980
O895        O  0.89365412  0.95762548  0.90207421    -0.70370
O896        O  0.81043004  0.96719820  0.99999157    -0.70830
O897        O  0.86752296  0.92649979  0.55347258    -0.70740
O898        O  0.89365441  0.95762577  0.59791359    -0.70530
C899        C  0.89021539  0.55769799  0.57942720     0.81260
C900        C  0.89021540  0.55769776  0.92055916     0.81750
C901        C  0.95570910  0.97928578  0.99999800     0.80710
C902        C  0.88339565  0.93130161  0.91118542     0.81090
C903        C  0.79657106  0.99290471  0.99999270     0.82220
C904        C  0.88339564  0.93130199  0.58880021     0.81270
C905        C  0.76377454  0.99291503  0.99999703    -0.09150
C906        C  0.73624966  0.99291726  0.00000204    -0.10700
C907        C  0.51344082  0.97256006  0.99999803    -0.09150
C908        C  0.98658421  0.97255850  0.99999889    -0.10700
C909        C  0.60610265  0.90610270  0.61637487    -0.09150
C910        C  0.58954039  0.88941834  0.63815278    -0.10700
C911        C  0.58954249  0.88941725  0.86185521    -0.09150
C912        C  0.60610442  0.90610230  0.88363527    -0.10700
C913        C  0.89391824  0.90609401  0.61635996    -0.09150
C914        C  0.91048003  0.88940894  0.63813871    -0.10700
C915        C  0.91048169  0.88940931  0.86185090    -0.09150
C916        C  0.89391933  0.90609370  0.88362747    -0.10700
C917        C  0.59831414  0.58405547  0.60331724    -0.09150
C918        C  0.58239541  0.60080216  0.62581938    -0.10700
C919        C  0.58239675  0.60080326  0.87418982    -0.09150
C920        C  0.59831494  0.58405580  0.89669379    -0.10620
C921        C  0.90171395  0.58405108  0.60330053    -0.09150
C922        C  0.91763117  0.60080176  0.62580219    -0.10700
C923        C  0.90171469  0.58405049  0.89668738    -0.09150
C924        C  0.91763235  0.60080048  0.87418789    -0.10700
C925        C  0.50001060  0.75674119  0.74999992    -0.09150
C926        C  0.00001078  0.72934644  0.75000025    -0.10700
C927        C  0.49999307  0.50606797  0.75000097    -0.09150
C928        C  0.49999329  0.97943000  0.75000123    -0.10700
loop_ 
_geom_bond_atom_site_label_1 
_geom_bond_atom_site_label_2 
_geom_bond_distance 
_geom_bond_site_symmetry_2 
_ccdc_geom_bond_type 
Zn1           O5   1.936       .  S
Zn1           O6   1.914       .  S
Zn1          O10   1.947       .  S
Zn1          O17   1.947       .  S
Zn2         O469   1.936       .  S
Zn2           O7   1.947       .  S
Zn2           O9   1.914       .  S
Zn2          O13   1.947       .  S
Zn3         O469   1.976       .  S
Zn3          O11   2.105       .  S
Zn3          O14   2.037       .  S
Zn3         O472   2.105       .  S
Zn4         O469   1.976       .  S
Zn4          O12   2.037       .  S
Zn4          O15   2.105       .  S
Zn4         O480   2.105       .  S
O5         Zn466   1.936   1_455  S
O5         Zn467   1.976       .  S
O5         Zn468   1.976       .  S
O6           C18   1.259   1_455  A
O7           C19   1.260       .  A
O8         Zn467   2.105       .  S
O8           C20   1.280       .  A
O9          C482   1.259       .  A
O10          C20   1.260       .  A
O11          C19   1.280       .  A
O12          C21   1.283       .  A
O13          C22   1.260       .  A
O14          C21   1.283       .  A
O15          C22   1.280       .  A
O16        Zn468   2.105       .  S
O16          C23   1.280       .  A
O17          C23   1.260       .  A
C18         O473   1.259       .  A
C18         C115   1.376       .  S
C19         C112   1.445       .  S
C20         C107   1.445       .  S
C21         C114   1.433       .  S
C22         C110   1.445       .  S
C23         C106   1.445       .  S
Zn24        O492   1.973       .  S
Zn24         O29   2.077       .  S
Zn24         O33   2.077       .  S
Zn24         O40   2.039       .  S
Zn25         O28   1.947       .  S
Zn25         O30   1.913       .  S
Zn25         O36   1.996       .  S
Zn25        O496   1.996   1_455  S
Zn26         O28   1.947       .  S
Zn26         O34   1.913       .  S
Zn26         O37   1.996       .  S
Zn26        O495   1.996   1_455  S
Zn27         O28   1.973       .  S
Zn27         O35   2.077       .  S
Zn27         O38   2.077       .  S
Zn27         O39   2.039       .  S
O28        Zn488   1.973   1_455  S
O29          C41   1.276       .  A
O30          C42   1.259   1_455  A
O31        Zn490   1.996       .  S
O31          C43   1.268       .  A
O32        Zn489   1.996       .  S
O32          C41   1.268       .  A
O33          C43   1.276       .  A
O34          C42   1.259   1_455  A
O35          C44   1.276       .  A
O36          C45   1.268       .  A
O37          C44   1.268       .  A
O38          C45   1.276       .  A
O39          C46   1.284       .  A
O40         C510   1.284       .  A
C41         C102   1.452       .  S
C42         C116   1.376       .  S
C43         C103   1.452       .  S
C44          C99   1.452       .  S
C45          C98   1.452       .  S
C46         O504   1.284   1_455  A
C46         C113   1.433       .  S
Zn47         O51   1.940       .  S
Zn47         O56   1.924       .  S
Zn47         O63   2.009       .  S
Zn47        O284   1.999       .  S
Zn48        O283   1.970   1_545  S
Zn48         O55   2.066       .  S
Zn48         O59   2.038       .  S
Zn48        O169   2.066       .  S
Zn49        O167   1.940       .  S
Zn49         O54   1.924       .  S
Zn49         O60   2.009       .  S
Zn49        O289   1.999       .  S
Zn50         O51   1.958       .  S
Zn50         O61   2.041       .  S
Zn50         O62   2.068       .  S
Zn50        O174   2.068       .  S
O51        Zn280   1.970       .  S
O51        Zn165   1.940       .  S
O52        Zn279   1.999   1_545  S
O52          C64   1.269       .  A
O53        Zn164   2.066       .  S
O53          C65   1.275       .  A
O54         C182   1.260   1_554  A
O55          C64   1.275       .  A
O56          C66   1.260       .  A
O57        Zn281   1.999   1_545  S
O57          C65   1.269       .  A
O58        Zn166   2.068       .  S
O58          C67   1.275       .  A
O59         C300   1.283   1_545  A
O60          C67   1.271       .  A
O61          C68   1.283       .  A
O62          C69   1.275       .  A
O63          C69   1.271       .  A
C64         C108   1.449       .  S
C65         C105   1.449       .  S
C66         O170   1.260       .  A
C66          C95   1.383       .  S
C67          C97   1.453       .  S
C68         O291   1.283       .  A
C68          C94   1.435       .  S
C69         C100   1.453       .  S
Zn70        O190   1.940   1_554  S
Zn70         O79   1.924       .  S
Zn70         O86   2.009       .  S
Zn70        O307   1.999       .  S
Zn71        O306   1.970   1_545  S
Zn71         O76   2.066       .  S
Zn71         O82   2.038       .  S
Zn71        O194   2.066       .  S
Zn72         O74   1.940       .  S
Zn72         O77   1.924       .  S
Zn72         O83   2.009       .  S
Zn72        O312   1.999       .  S
Zn73         O74   1.958       .  S
Zn73         O81   2.068       .  S
Zn73         O84   2.041       .  S
Zn73        O201   2.068       .  S
O74        Zn186   1.940       .  S
O74        Zn303   1.970       .  S
O75        Zn302   1.999   1_545  S
O75          C87   1.269       .  A
O76          C88   1.275       .  A
O77          C89   1.260       .  A
O78        Zn187   2.066   1_554  S
O78          C87   1.275       .  A
O79         C205   1.260   1_554  A
O80        Zn304   1.999   1_545  S
O80          C88   1.269       .  A
O81          C90   1.275       .  A
O82         C323   1.283   1_545  A
O83          C90   1.271       .  A
O84          C91   1.283       .  A
O85        Zn189   2.068   1_554  S
O85          C92   1.275       .  A
O86          C92   1.271       .  A
C87         C109   1.449       .  S
C88         C111   1.449       .  S
C89         O195   1.260       .  A
C89          C96   1.383       .  S
C90         C104   1.453       .  S
C91         O314   1.283       .  A
C91          C93   1.435       .  S
C92         C101   1.453       .  S
C93          C94   1.205       .  T
C95         C560   1.175   1_455  T
C96         C559   1.175       .  T
C97          C98   1.217       .  T
C99         C100   1.217       .  T
C101        C102   1.217       .  T
C103        C104   1.217       .  T
C105        C106   1.214       .  T
C107        C108   1.214       .  T
C109        C110   1.214       .  T
C111        C112   1.214       .  T
C113        C578   1.205       .  T
C114        C577   1.205       .  T
C115        C348   1.172   1_545  T
C116        C347   1.172       .  T
Zn117       O121   1.936       .  S
Zn117       O122   1.914       .  S
Zn117       O126   1.947       .  S
Zn117       O133   1.947       .  S
Zn118       O585   1.936       .  S
Zn118       O123   1.947       .  S
Zn118       O125   1.914       .  S
Zn118       O129   1.947       .  S
Zn119       O585   1.976       .  S
Zn119       O588   2.105       .  S
Zn119       O127   2.105       .  S
Zn119       O130   2.037       .  S
Zn120       O585   1.976       .  S
Zn120       O128   2.037       .  S
Zn120       O131   2.105       .  S
Zn120       O596   2.105       .  S
O121       Zn582   1.936   1_455  S
O121       Zn583   1.976       .  S
O121       Zn584   1.976       .  S
O122        C134   1.259   1_455  A
O123        C135   1.260       .  A
O124       Zn583   2.105       .  S
O124        C136   1.280       .  A
O125        C598   1.259       .  A
O126        C136   1.260       .  A
O127        C135   1.280       .  A
O128        C137   1.283       .  A
O129        C138   1.260       .  A
O130        C137   1.283       .  A
O131        C138   1.280       .  A
O132       Zn584   2.105       .  S
O132        C139   1.280       .  A
O133        C139   1.260       .  A
C134        O589   1.259       .  A
C134        C231   1.376       .  S
C135        C228   1.445       .  S
C136        C223   1.445       .  S
C137        C230   1.433       .  S
C138        C226   1.445       .  S
C139        C222   1.445       .  S
Zn140       O608   1.973       .  S
Zn140       O145   2.077       .  S
Zn140       O149   2.077       .  S
Zn140       O156   2.039       .  S
Zn141       O144   1.947       .  S
Zn141       O146   1.913       .  S
Zn141       O612   1.996   1_455  S
Zn141       O152   1.996       .  S
Zn142       O144   1.947       .  S
Zn142       O611   1.996   1_455  S
Zn142       O150   1.913       .  S
Zn142       O153   1.996       .  S
Zn143       O144   1.973       .  S
Zn143       O151   2.077       .  S
Zn143       O154   2.077       .  S
Zn143       O155   2.039       .  S
O144       Zn604   1.973   1_455  S
O145        C157   1.276       .  A
O146        C158   1.259   1_455  A
O147       Zn606   1.996       .  S
O147        C159   1.268       .  A
O148       Zn605   1.996       .  S
O148        C157   1.268       .  A
O149        C159   1.276       .  A
O150        C158   1.259   1_455  A
O151        C160   1.276       .  A
O152        C161   1.268       .  A
O153        C160   1.268       .  A
O154        C161   1.276       .  A
O155        C162   1.284       .  A
O156        C626   1.284       .  A
C157        C218   1.452       .  S
C158        C232   1.376       .  S
C159        C219   1.452       .  S
C160        C215   1.452       .  S
C161        C214   1.452       .  S
C162        O620   1.284   1_455  A
C162        C229   1.433       .  S
Zn163       O167   1.940   1_556  S
Zn163       O400   1.999       .  S
Zn163       O172   1.924       .  S
Zn163       O179   2.009       .  S
Zn164       O399   1.970   1_545  S
Zn164       O171   2.066   1_554  S
Zn164       O175   2.038       .  S
Zn165       O170   1.924       .  S
Zn165       O405   1.999       .  S
Zn165       O176   2.009       .  S
Zn166       O167   1.958       .  S
Zn166       O177   2.041       .  S
Zn166       O178   2.068   1_554  S
O167       Zn396   1.970       .  S
O168       Zn395   1.999   1_545  S
O168        C180   1.269       .  A
O169        C181   1.275       .  A
O171        C180   1.275       .  A
O172        C182   1.260       .  A
O173       Zn397   1.999   1_545  S
O173        C181   1.269       .  A
O174        C183   1.275       .  A
O175        C416   1.283   1_545  A
O176        C183   1.271       .  A
O177        C184   1.283       .  A
O178        C185   1.275       .  A
O179        C185   1.271       .  A
C180        C224   1.449       .  S
C181        C221   1.449       .  S
C182        C211   1.383       .  S
C183        C213   1.453       .  S
C184        O407   1.283       .  A
C184        C210   1.435       .  S
C185        C216   1.453       .  S
Zn186       O423   1.999       .  S
Zn186       O195   1.924       .  S
Zn186       O202   2.009       .  S
Zn187       O422   1.970   1_545  S
Zn187       O192   2.066       .  S
Zn187       O198   2.038       .  S
Zn188       O190   1.940       .  S
Zn188       O193   1.924       .  S
Zn188       O428   1.999       .  S
Zn188       O199   2.009       .  S
Zn189       O190   1.958       .  S
Zn189       O197   2.068       .  S
Zn189       O200   2.041       .  S
O190       Zn419   1.970       .  S
O191       Zn418   1.999   1_545  S
O191        C203   1.269       .  A
O192        C204   1.275       .  A
O193        C205   1.260       .  A
O194        C203   1.275       .  A
O196       Zn420   1.999   1_545  S
O196        C204   1.269       .  A
O197        C206   1.275       .  A
O198        C439   1.283   1_545  A
O199        C206   1.271       .  A
O200        C207   1.283       .  A
O201        C208   1.275       .  A
O202        C208   1.271       .  A
C203        C225   1.449       .  S
C204        C227   1.449       .  S
C205        C212   1.383       .  S
C206        C220   1.453       .  S
C207        O430   1.283       .  A
C207        C209   1.435       .  S
C208        C217   1.453       .  S
C209        C210   1.205   1_556  T
C211        C676   1.175   1_455  T
C212        C675   1.175       .  T
C213        C214   1.217       .  T
C215        C216   1.217       .  T
C217        C218   1.217       .  T
C219        C220   1.217       .  T
C221        C222   1.214       .  T
C223        C224   1.214       .  T
C225        C226   1.214       .  T
C227        C228   1.214       .  T
C229        C694   1.205       .  T
C230        C693   1.205       .  T
C231        C464   1.172   1_545  T
C232        C463   1.172       .  T
Zn233       O237   1.936       .  S
Zn233       O238   1.914       .  S
Zn233       O242   1.947       .  S
Zn233       O249   1.947       .  S
Zn234       O701   1.936       .  S
Zn234       O239   1.947       .  S
Zn234       O241   1.914       .  S
Zn234       O245   1.947       .  S
Zn235       O701   1.976       .  S
Zn235       O704   2.105       .  S
Zn235       O243   2.105       .  S
Zn235       O246   2.037       .  S
Zn236       O701   1.976       .  S
Zn236       O244   2.037       .  S
Zn236       O247   2.105       .  S
Zn236       O712   2.105       .  S
O237       Zn698   1.936   1_455  S
O237       Zn699   1.976       .  S
O237       Zn700   1.976       .  S
O238        C250   1.259   1_455  A
O239        C251   1.260       .  A
O240       Zn699   2.105       .  S
O240        C252   1.280       .  A
O241        C714   1.259       .  A
O242        C252   1.260       .  A
O243        C251   1.280       .  A
O244        C253   1.283       .  A
O245        C254   1.260       .  A
O246        C253   1.283       .  A
O247        C254   1.280       .  A
O248       Zn700   2.105       .  S
O248        C255   1.280       .  A
O249        C255   1.260       .  A
C250        O705   1.259       .  A
C250        C347   1.376       .  S
C251        C344   1.445       .  S
C252        C339   1.445       .  S
C253        C346   1.433       .  S
C254        C342   1.445       .  S
C255        C338   1.445       .  S
Zn256       O724   1.973       .  S
Zn256       O261   2.077       .  S
Zn256       O265   2.077       .  S
Zn256       O272   2.039       .  S
Zn257       O260   1.947       .  S
Zn257       O262   1.913       .  S
Zn257       O728   1.996   1_455  S
Zn257       O268   1.996       .  S
Zn258       O260   1.947       .  S
Zn258       O727   1.996   1_455  S
Zn258       O266   1.913       .  S
Zn258       O269   1.996       .  S
Zn259       O260   1.973       .  S
Zn259       O267   2.077       .  S
Zn259       O270   2.077       .  S
Zn259       O271   2.039       .  S
O260       Zn720   1.973   1_455  S
O261        C273   1.276       .  A
O262        C274   1.259   1_455  A
O263       Zn722   1.996       .  S
O263        C275   1.268       .  A
O264       Zn721   1.996       .  S
O264        C273   1.268       .  A
O265        C275   1.276       .  A
O266        C274   1.259   1_455  A
O267        C276   1.276       .  A
O268        C277   1.268       .  A
O269        C276   1.268       .  A
O270        C277   1.276       .  A
O271        C278   1.284       .  A
O272        C742   1.284       .  A
C273        C334   1.452       .  S
C274        C348   1.376       .  S
C275        C335   1.452       .  S
C276        C331   1.452       .  S
C277        C330   1.452       .  S
C278        O736   1.284   1_455  A
C278        C345   1.433       .  S
Zn279       O283   1.940       .  S
Zn279       O288   1.924       .  S
Zn279       O295   2.009       .  S
Zn280       O401   2.066       .  S
Zn280       O287   2.066       .  S
Zn280       O291   2.038       .  S
Zn281       O399   1.940       .  S
Zn281       O286   1.924       .  S
Zn281       O292   2.009       .  S
Zn282       O283   1.958       .  S
Zn282       O406   2.068       .  S
Zn282       O293   2.041       .  S
Zn282       O294   2.068       .  S
O283       Zn397   1.940       .  S
O284        C296   1.269       .  A
O285       Zn396   2.066       .  S
O285        C297   1.275       .  A
O286        C414   1.260   1_554  A
O287        C296   1.275       .  A
O288        C298   1.260       .  A
O289        C297   1.269       .  A
O290       Zn398   2.068       .  S
O290        C299   1.275       .  A
O292        C299   1.271       .  A
O293        C300   1.283       .  A
O294        C301   1.275       .  A
O295        C301   1.271       .  A
C296        C340   1.449       .  S
C297        C337   1.449       .  S
C298        O402   1.260       .  A
C298        C327   1.383       .  S
C299        C329   1.453       .  S
C300        C326   1.435       .  S
C301        C332   1.453       .  S
Zn302       O422   1.940   1_554  S
Zn302       O311   1.924       .  S
Zn302       O318   2.009       .  S
Zn303       O308   2.066       .  S
Zn303       O426   2.066       .  S
Zn303       O314   2.038       .  S
Zn304       O306   1.940       .  S
Zn304       O309   1.924       .  S
Zn304       O315   2.009       .  S
Zn305       O306   1.958       .  S
Zn305       O313   2.068       .  S
Zn305       O316   2.041       .  S
Zn305       O433   2.068       .  S
O306       Zn418   1.940       .  S
O307        C319   1.269       .  A
O308        C320   1.275       .  A
O309        C321   1.260       .  A
O310       Zn419   2.066   1_554  S
O310        C319   1.275       .  A
O311        C437   1.260   1_554  A
O312        C320   1.269       .  A
O313        C322   1.275       .  A
O315        C322   1.271       .  A
O316        C323   1.283       .  A
O317       Zn421   2.068   1_554  S
O317        C324   1.275       .  A
O318        C324   1.271       .  A
C319        C341   1.449       .  S
C320        C343   1.449       .  S
C321        O427   1.260       .  A
C321        C328   1.383       .  S
C322        C336   1.453       .  S
C323        C325   1.435       .  S
C324        C333   1.453       .  S
C325        C326   1.205       .  T
C327        C792   1.175   1_455  T
C328        C791   1.175       .  T
C329        C330   1.217       .  T
C331        C332   1.217       .  T
C333        C334   1.217       .  T
C335        C336   1.217       .  T
C337        C338   1.214       .  T
C339        C340   1.214       .  T
C341        C342   1.214       .  T
C343        C344   1.214       .  T
C345        C810   1.205       .  T
C346        C809   1.205       .  T
Zn349       O353   1.936       .  S
Zn349       O354   1.914       .  S
Zn349       O358   1.947       .  S
Zn349       O365   1.947       .  S
Zn350       O817   1.936       .  S
Zn350       O355   1.947       .  S
Zn350       O357   1.914       .  S
Zn350       O361   1.947       .  S
Zn351       O817   1.976       .  S
Zn351       O820   2.105       .  S
Zn351       O359   2.105       .  S
Zn351       O362   2.037       .  S
Zn352       O817   1.976       .  S
Zn352       O360   2.037       .  S
Zn352       O363   2.105       .  S
Zn352       O828   2.105       .  S
O353       Zn814   1.936   1_455  S
O353       Zn815   1.976       .  S
O353       Zn816   1.976       .  S
O354        C366   1.259   1_455  A
O355        C367   1.260       .  A
O356       Zn815   2.105       .  S
O356        C368   1.280       .  A
O357        C830   1.259       .  A
O358        C368   1.260       .  A
O359        C367   1.280       .  A
O360        C369   1.283       .  A
O361        C370   1.260       .  A
O362        C369   1.283       .  A
O363        C370   1.280       .  A
O364       Zn816   2.105       .  S
O364        C371   1.280       .  A
O365        C371   1.260       .  A
C366        O821   1.259       .  A
C366        C463   1.376       .  S
C367        C460   1.445       .  S
C368        C455   1.445       .  S
C369        C462   1.433       .  S
C370        C458   1.445       .  S
C371        C454   1.445       .  S
Zn372       O840   1.973       .  S
Zn372       O377   2.077       .  S
Zn372       O381   2.077       .  S
Zn372       O388   2.039       .  S
Zn373       O376   1.947       .  S
Zn373       O378   1.913       .  S
Zn373       O844   1.996   1_455  S
Zn373       O384   1.996       .  S
Zn374       O376   1.947       .  S
Zn374       O843   1.996   1_455  S
Zn374       O382   1.913       .  S
Zn374       O385   1.996       .  S
Zn375       O376   1.973       .  S
Zn375       O383   2.077       .  S
Zn375       O386   2.077       .  S
Zn375       O387   2.039       .  S
O376       Zn836   1.973   1_455  S
O377        C389   1.276       .  A
O378        C390   1.259   1_455  A
O379       Zn838   1.996       .  S
O379        C391   1.268       .  A
O380       Zn837   1.996       .  S
O380        C389   1.268       .  A
O381        C391   1.276       .  A
O382        C390   1.259   1_455  A
O383        C392   1.276       .  A
O384        C393   1.268       .  A
O385        C392   1.268       .  A
O386        C393   1.276       .  A
O387        C394   1.284       .  A
O388        C858   1.284       .  A
C389        C450   1.452       .  S
C390        C464   1.376       .  S
C391        C451   1.452       .  S
C392        C447   1.452       .  S
C393        C446   1.452       .  S
C394        O852   1.284   1_455  A
C394        C461   1.433       .  S
Zn395       O399   1.940   1_556  S
Zn395       O404   1.924       .  S
Zn395       O411   2.009       .  S
Zn396       O403   2.066   1_554  S
Zn396       O407   2.038       .  S
Zn397       O402   1.924       .  S
Zn397       O408   2.009       .  S
Zn398       O399   1.958       .  S
Zn398       O409   2.041       .  S
Zn398       O410   2.068   1_554  S
O400        C412   1.269       .  A
O401        C413   1.275       .  A
O403        C412   1.275       .  A
O404        C414   1.260       .  A
O405        C413   1.269       .  A
O406        C415   1.275       .  A
O408        C415   1.271       .  A
O409        C416   1.283       .  A
O410        C417   1.275       .  A
O411        C417   1.271       .  A
C412        C456   1.449       .  S
C413        C453   1.449       .  S
C414        C443   1.383       .  S
C415        C445   1.453       .  S
C416        C442   1.435       .  S
C417        C448   1.453       .  S
Zn418       O427   1.924       .  S
Zn418       O434   2.009       .  S
Zn419       O424   2.066       .  S
Zn419       O430   2.038       .  S
Zn420       O422   1.940       .  S
Zn420       O425   1.924       .  S
Zn420       O431   2.009       .  S
Zn421       O422   1.958       .  S
Zn421       O429   2.068       .  S
Zn421       O432   2.041       .  S
O423        C435   1.269       .  A
O424        C436   1.275       .  A
O425        C437   1.260       .  A
O426        C435   1.275       .  A
O428        C436   1.269       .  A
O429        C438   1.275       .  A
O431        C438   1.271       .  A
O432        C439   1.283       .  A
O433        C440   1.275       .  A
O434        C440   1.271       .  A
C435        C457   1.449       .  S
C436        C459   1.449       .  S
C437        C444   1.383       .  S
C438        C452   1.453       .  S
C439        C441   1.435       .  S
C440        C449   1.453       .  S
C441        C442   1.205   1_556  T
C443        C908   1.175   1_455  T
C444        C907   1.175       .  T
C445        C446   1.217       .  T
C447        C448   1.217       .  T
C449        C450   1.217       .  T
C451        C452   1.217       .  T
C453        C454   1.214       .  T
C455        C456   1.214       .  T
C457        C458   1.214       .  T
C459        C460   1.214       .  T
C461        C926   1.205       .  T
C462        C925   1.205       .  T
Zn465       O469   1.936       .  S
Zn465       O470   1.914       .  S
Zn465       O474   1.947       .  S
Zn465       O481   1.947       .  S
Zn466       O471   1.947       .  S
Zn466       O473   1.914       .  S
Zn466       O477   1.947       .  S
Zn467       O475   2.105   1_455  S
Zn467       O478   2.037       .  S
Zn468       O476   2.037       .  S
Zn468       O479   2.105   1_455  S
O470        C482   1.259       .  A
O471        C483   1.260       .  A
O472        C484   1.280       .  A
O474        C484   1.260       .  A
O475        C483   1.280       .  A
O476        C485   1.283       .  A
O477        C486   1.260       .  A
O478        C485   1.283       .  A
O479        C486   1.280       .  A
O480        C487   1.280       .  A
O481        C487   1.260       .  A
C482        C579   1.376       .  S
C483        C576   1.445       .  S
C484        C571   1.445       .  S
C485        C578   1.433       .  S
C486        C574   1.445       .  S
C487        C570   1.445       .  S
Zn488       O493   2.077       .  S
Zn488       O497   2.077       .  S
Zn488       O504   2.039       .  S
Zn489       O492   1.947       .  S
Zn489       O494   1.913       .  S
Zn489       O500   1.996       .  S
Zn490       O492   1.947       .  S
Zn490       O498   1.913       .  S
Zn490       O501   1.996       .  S
Zn491       O492   1.973       .  S
Zn491       O499   2.077       .  S
Zn491       O502   2.077       .  S
Zn491       O503   2.039       .  S
O493        C505   1.276       .  A
O494        C506   1.259       .  A
O495        C507   1.268       .  A
O496        C505   1.268       .  A
O497        C507   1.276       .  A
O498        C506   1.259       .  A
O499        C508   1.276       .  A
O500        C509   1.268       .  A
O501        C508   1.268       .  A
O502        C509   1.276       .  A
O503        C510   1.284       .  A
C505        C566   1.452       .  S
C506        C580   1.376       .  S
C507        C567   1.452       .  S
C508        C563   1.452       .  S
C509        C562   1.452       .  S
C510        C577   1.433       .  S
Zn511       O515   1.940       .  S
Zn511       O748   1.999       .  S
Zn511       O520   1.924       .  S
Zn511       O527   2.009       .  S
Zn512       O747   1.970   1_545  S
Zn512       O633   2.066       .  S
Zn512       O519   2.066       .  S
Zn512       O523   2.038       .  S
Zn513       O631   1.940       .  S
Zn513       O518   1.924       .  S
Zn513       O753   1.999       .  S
Zn513       O524   2.009       .  S
Zn514       O515   1.958       .  S
Zn514       O638   2.068       .  S
Zn514       O525   2.041       .  S
Zn514       O526   2.068       .  S
O515       Zn744   1.970       .  S
O515       Zn629   1.940       .  S
O516       Zn743   1.999   1_545  S
O516        C528   1.269       .  A
O517       Zn628   2.066       .  S
O517        C529   1.275       .  A
O518        C646   1.260   1_554  A
O519        C528   1.275       .  A
O520        C530   1.260       .  A
O521       Zn745   1.999   1_545  S
O521        C529   1.269       .  A
O522       Zn630   2.068       .  S
O522        C531   1.275       .  A
O523        C764   1.283   1_545  A
O524        C531   1.271       .  A
O525        C532   1.283       .  A
O526        C533   1.275       .  A
O527        C533   1.271       .  A
C528        C572   1.449       .  S
C529        C569   1.449       .  S
C530        O634   1.260       .  A
C530        C559   1.383       .  S
C531        C561   1.453       .  S
C532        O755   1.283       .  A
C532        C558   1.435       .  S
C533        C564   1.453       .  S
Zn534       O654   1.940   1_554  S
Zn534       O771   1.999       .  S
Zn534       O543   1.924       .  S
Zn534       O550   2.009       .  S
Zn535       O770   1.970   1_545  S
Zn535       O540   2.066       .  S
Zn535       O658   2.066       .  S
Zn535       O546   2.038       .  S
Zn536       O538   1.940       .  S
Zn536       O541   1.924       .  S
Zn536       O776   1.999       .  S
Zn536       O547   2.009       .  S
Zn537       O538   1.958       .  S
Zn537       O545   2.068       .  S
Zn537       O548   2.041       .  S
Zn537       O665   2.068       .  S
O538       Zn650   1.940       .  S
O538       Zn767   1.970       .  S
O539       Zn766   1.999   1_545  S
O539        C551   1.269       .  A
O540        C552   1.275       .  A
O541        C553   1.260       .  A
O542       Zn651   2.066   1_554  S
O542        C551   1.275       .  A
O543        C669   1.260   1_554  A
O544       Zn768   1.999   1_545  S
O544        C552   1.269       .  A
O545        C554   1.275       .  A
O546        C787   1.283   1_545  A
O547        C554   1.271       .  A
O548        C555   1.283       .  A
O549       Zn653   2.068   1_554  S
O549        C556   1.275       .  A
O550        C556   1.271       .  A
C551        C573   1.449       .  S
C552        C575   1.449       .  S
C553        O659   1.260       .  A
C553        C560   1.383       .  S
C554        C568   1.453       .  S
C555        O778   1.283       .  A
C555        C557   1.435       .  S
C556        C565   1.453       .  S
C557        C558   1.205       .  T
C561        C562   1.217       .  T
C563        C564   1.217       .  T
C565        C566   1.217       .  T
C567        C568   1.217       .  T
C569        C570   1.214       .  T
C571        C572   1.214       .  T
C573        C574   1.214       .  T
C575        C576   1.214       .  T
C579        C812   1.172   1_545  T
C580        C811   1.172       .  T
Zn581       O585   1.936       .  S
Zn581       O586   1.914       .  S
Zn581       O590   1.947       .  S
Zn581       O597   1.947       .  S
Zn582       O587   1.947       .  S
Zn582       O589   1.914       .  S
Zn582       O593   1.947       .  S
Zn583       O591   2.105   1_455  S
Zn583       O594   2.037       .  S
Zn584       O592   2.037       .  S
Zn584       O595   2.105   1_455  S
O586        C598   1.259       .  A
O587        C599   1.260       .  A
O588        C600   1.280       .  A
O590        C600   1.260       .  A
O591        C599   1.280       .  A
O592        C601   1.283       .  A
O593        C602   1.260       .  A
O594        C601   1.283       .  A
O595        C602   1.280       .  A
O596        C603   1.280       .  A
O597        C603   1.260       .  A
C598        C695   1.376       .  S
C599        C692   1.445       .  S
C600        C687   1.445       .  S
C601        C694   1.433       .  S
C602        C690   1.445       .  S
C603        C686   1.445       .  S
Zn604       O609   2.077       .  S
Zn604       O613   2.077       .  S
Zn604       O620   2.039       .  S
Zn605       O608   1.947       .  S
Zn605       O610   1.913       .  S
Zn605       O616   1.996       .  S
Zn606       O608   1.947       .  S
Zn606       O614   1.913       .  S
Zn606       O617   1.996       .  S
Zn607       O608   1.973       .  S
Zn607       O615   2.077       .  S
Zn607       O618   2.077       .  S
Zn607       O619   2.039       .  S
O609        C621   1.276       .  A
O610        C622   1.259       .  A
O611        C623   1.268       .  A
O612        C621   1.268       .  A
O613        C623   1.276       .  A
O614        C622   1.259       .  A
O615        C624   1.276       .  A
O616        C625   1.268       .  A
O617        C624   1.268       .  A
O618        C625   1.276       .  A
O619        C626   1.284       .  A
C621        C682   1.452       .  S
C622        C696   1.376       .  S
C623        C683   1.452       .  S
C624        C679   1.452       .  S
C625        C678   1.452       .  S
C626        C693   1.433       .  S
Zn627       O631   1.940   1_556  S
Zn627       O864   1.999       .  S
Zn627       O636   1.924       .  S
Zn627       O643   2.009       .  S
Zn628       O863   1.970   1_545  S
Zn628       O635   2.066   1_554  S
Zn628       O639   2.038       .  S
Zn629       O634   1.924       .  S
Zn629       O869   1.999       .  S
Zn629       O640   2.009       .  S
Zn630       O631   1.958       .  S
Zn630       O641   2.041       .  S
Zn630       O642   2.068   1_554  S
O631       Zn860   1.970       .  S
O632       Zn859   1.999   1_545  S
O632        C644   1.269       .  A
O633        C645   1.275       .  A
O635        C644   1.275       .  A
O636        C646   1.260       .  A
O637       Zn861   1.999   1_545  S
O637        C645   1.269       .  A
O638        C647   1.275       .  A
O639        C880   1.283   1_545  A
O640        C647   1.271       .  A
O641        C648   1.283       .  A
O642        C649   1.275       .  A
O643        C649   1.271       .  A
C644        C688   1.449       .  S
C645        C685   1.449       .  S
C646        C675   1.383       .  S
C647        C677   1.453       .  S
C648        O871   1.283       .  A
C648        C674   1.435       .  S
C649        C680   1.453       .  S
Zn650       O887   1.999       .  S
Zn650       O659   1.924       .  S
Zn650       O666   2.009       .  S
Zn651       O886   1.970   1_545  S
Zn651       O656   2.066       .  S
Zn651       O662   2.038       .  S
Zn652       O654   1.940       .  S
Zn652       O657   1.924       .  S
Zn652       O892   1.999       .  S
Zn652       O663   2.009       .  S
Zn653       O654   1.958       .  S
Zn653       O661   2.068       .  S
Zn653       O664   2.041       .  S
O654       Zn883   1.970       .  S
O655       Zn882   1.999   1_545  S
O655        C667   1.269       .  A
O656        C668   1.275       .  A
O657        C669   1.260       .  A
O658        C667   1.275       .  A
O660       Zn884   1.999   1_545  S
O660        C668   1.269       .  A
O661        C670   1.275       .  A
O662        C903   1.283   1_545  A
O663        C670   1.271       .  A
O664        C671   1.283       .  A
O665        C672   1.275       .  A
O666        C672   1.271       .  A
C667        C689   1.449       .  S
C668        C691   1.449       .  S
C669        C676   1.383       .  S
C670        C684   1.453       .  S
C671        O894   1.283       .  A
C671        C673   1.435       .  S
C672        C681   1.453       .  S
C673        C674   1.205   1_556  T
C677        C678   1.217       .  T
C679        C680   1.217       .  T
C681        C682   1.217       .  T
C683        C684   1.217       .  T
C685        C686   1.214       .  T
C687        C688   1.214       .  T
C689        C690   1.214       .  T
C691        C692   1.214       .  T
C695        C928   1.172   1_545  T
C696        C927   1.172       .  T
Zn697       O701   1.936       .  S
Zn697       O702   1.914       .  S
Zn697       O706   1.947       .  S
Zn697       O713   1.947       .  S
Zn698       O703   1.947       .  S
Zn698       O705   1.914       .  S
Zn698       O709   1.947       .  S
Zn699       O707   2.105   1_455  S
Zn699       O710   2.037       .  S
Zn700       O708   2.037       .  S
Zn700       O711   2.105   1_455  S
O702        C714   1.259       .  A
O703        C715   1.260       .  A
O704        C716   1.280       .  A
O706        C716   1.260       .  A
O707        C715   1.280       .  A
O708        C717   1.283       .  A
O709        C718   1.260       .  A
O710        C717   1.283       .  A
O711        C718   1.280       .  A
O712        C719   1.280       .  A
O713        C719   1.260       .  A
C714        C811   1.376       .  S
C715        C808   1.445       .  S
C716        C803   1.445       .  S
C717        C810   1.433       .  S
C718        C806   1.445       .  S
C719        C802   1.445       .  S
Zn720       O725   2.077       .  S
Zn720       O729   2.077       .  S
Zn720       O736   2.039       .  S
Zn721       O724   1.947       .  S
Zn721       O726   1.913       .  S
Zn721       O732   1.996       .  S
Zn722       O724   1.947       .  S
Zn722       O730   1.913       .  S
Zn722       O733   1.996       .  S
Zn723       O724   1.973       .  S
Zn723       O731   2.077       .  S
Zn723       O734   2.077       .  S
Zn723       O735   2.039       .  S
O725        C737   1.276       .  A
O726        C738   1.259       .  A
O727        C739   1.268       .  A
O728        C737   1.268       .  A
O729        C739   1.276       .  A
O730        C738   1.259       .  A
O731        C740   1.276       .  A
O732        C741   1.268       .  A
O733        C740   1.268       .  A
O734        C741   1.276       .  A
O735        C742   1.284       .  A
C737        C798   1.452       .  S
C738        C812   1.376       .  S
C739        C799   1.452       .  S
C740        C795   1.452       .  S
C741        C794   1.452       .  S
C742        C809   1.433       .  S
Zn743       O747   1.940       .  S
Zn743       O752   1.924       .  S
Zn743       O759   2.009       .  S
Zn744       O865   2.066       .  S
Zn744       O751   2.066       .  S
Zn744       O755   2.038       .  S
Zn745       O863   1.940       .  S
Zn745       O750   1.924       .  S
Zn745       O756   2.009       .  S
Zn746       O747   1.958       .  S
Zn746       O870   2.068       .  S
Zn746       O757   2.041       .  S
Zn746       O758   2.068       .  S
O747       Zn861   1.940       .  S
O748        C760   1.269       .  A
O749       Zn860   2.066       .  S
O749        C761   1.275       .  A
O750        C878   1.260   1_554  A
O751        C760   1.275       .  A
O752        C762   1.260       .  A
O753        C761   1.269       .  A
O754       Zn862   2.068       .  S
O754        C763   1.275       .  A
O756        C763   1.271       .  A
O757        C764   1.283       .  A
O758        C765   1.275       .  A
O759        C765   1.271       .  A
C760        C804   1.449       .  S
C761        C801   1.449       .  S
C762        O866   1.260       .  A
C762        C791   1.383       .  S
C763        C793   1.453       .  S
C764        C790   1.435       .  S
C765        C796   1.453       .  S
Zn766       O886   1.940   1_554  S
Zn766       O775   1.924       .  S
Zn766       O782   2.009       .  S
Zn767       O772   2.066       .  S
Zn767       O890   2.066       .  S
Zn767       O778   2.038       .  S
Zn768       O770   1.940       .  S
Zn768       O773   1.924       .  S
Zn768       O779   2.009       .  S
Zn769       O770   1.958       .  S
Zn769       O777   2.068       .  S
Zn769       O780   2.041       .  S
Zn769       O897   2.068       .  S
O770       Zn882   1.940       .  S
O771        C783   1.269       .  A
O772        C784   1.275       .  A
O773        C785   1.260       .  A
O774       Zn883   2.066   1_554  S
O774        C783   1.275       .  A
O775        C901   1.260   1_554  A
O776        C784   1.269       .  A
O777        C786   1.275       .  A
O779        C786   1.271       .  A
O780        C787   1.283       .  A
O781       Zn885   2.068   1_554  S
O781        C788   1.275       .  A
O782        C788   1.271       .  A
C783        C805   1.449       .  S
C784        C807   1.449       .  S
C785        O891   1.260       .  A
C785        C792   1.383       .  S
C786        C800   1.453       .  S
C787        C789   1.435       .  S
C788        C797   1.453       .  S
C789        C790   1.205       .  T
C793        C794   1.217       .  T
C795        C796   1.217       .  T
C797        C798   1.217       .  T
C799        C800   1.217       .  T
C801        C802   1.214       .  T
C803        C804   1.214       .  T
C805        C806   1.214       .  T
C807        C808   1.214       .  T
Zn813       O817   1.936       .  S
Zn813       O818   1.914       .  S
Zn813       O822   1.947       .  S
Zn813       O829   1.947       .  S
Zn814       O819   1.947       .  S
Zn814       O821   1.914       .  S
Zn814       O825   1.947       .  S
Zn815       O823   2.105   1_455  S
Zn815       O826   2.037       .  S
Zn816       O824   2.037       .  S
Zn816       O827   2.105   1_455  S
O818        C830   1.259       .  A
O819        C831   1.260       .  A
O820        C832   1.280       .  A
O822        C832   1.260       .  A
O823        C831   1.280       .  A
O824        C833   1.283       .  A
O825        C834   1.260       .  A
O826        C833   1.283       .  A
O827        C834   1.280       .  A
O828        C835   1.280       .  A
O829        C835   1.260       .  A
C830        C927   1.376       .  S
C831        C924   1.445       .  S
C832        C919   1.445       .  S
C833        C926   1.433       .  S
C834        C922   1.445       .  S
C835        C918   1.445       .  S
Zn836       O841   2.077       .  S
Zn836       O845   2.077       .  S
Zn836       O852   2.039       .  S
Zn837       O840   1.947       .  S
Zn837       O842   1.913       .  S
Zn837       O848   1.996       .  S
Zn838       O840   1.947       .  S
Zn838       O846   1.913       .  S
Zn838       O849   1.996       .  S
Zn839       O840   1.973       .  S
Zn839       O847   2.077       .  S
Zn839       O850   2.077       .  S
Zn839       O851   2.039       .  S
O841        C853   1.276       .  A
O842        C854   1.259       .  A
O843        C855   1.268       .  A
O844        C853   1.268       .  A
O845        C855   1.276       .  A
O846        C854   1.259       .  A
O847        C856   1.276       .  A
O848        C857   1.268       .  A
O849        C856   1.268       .  A
O850        C857   1.276       .  A
O851        C858   1.284       .  A
C853        C914   1.452       .  S
C854        C928   1.376       .  S
C855        C915   1.452       .  S
C856        C911   1.452       .  S
C857        C910   1.452       .  S
C858        C925   1.433       .  S
Zn859       O863   1.940   1_556  S
Zn859       O868   1.924       .  S
Zn859       O875   2.009       .  S
Zn860       O867   2.066   1_554  S
Zn860       O871   2.038       .  S
Zn861       O866   1.924       .  S
Zn861       O872   2.009       .  S
Zn862       O863   1.958       .  S
Zn862       O873   2.041       .  S
Zn862       O874   2.068   1_554  S
O864        C876   1.269       .  A
O865        C877   1.275       .  A
O867        C876   1.275       .  A
O868        C878   1.260       .  A
O869        C877   1.269       .  A
O870        C879   1.275       .  A
O872        C879   1.271       .  A
O873        C880   1.283       .  A
O874        C881   1.275       .  A
O875        C881   1.271       .  A
C876        C920   1.449       .  S
C877        C917   1.449       .  S
C878        C907   1.383       .  S
C879        C909   1.453       .  S
C880        C906   1.435       .  S
C881        C912   1.453       .  S
Zn882       O891   1.924       .  S
Zn882       O898   2.009       .  S
Zn883       O888   2.066       .  S
Zn883       O894   2.038       .  S
Zn884       O886   1.940       .  S
Zn884       O889   1.924       .  S
Zn884       O895   2.009       .  S
Zn885       O886   1.958       .  S
Zn885       O893   2.068       .  S
Zn885       O896   2.041       .  S
O887        C899   1.269       .  A
O888        C900   1.275       .  A
O889        C901   1.260       .  A
O890        C899   1.275       .  A
O892        C900   1.269       .  A
O893        C902   1.275       .  A
O895        C902   1.271       .  A
O896        C903   1.283       .  A
O897        C904   1.275       .  A
O898        C904   1.271       .  A
C899        C921   1.449       .  S
C900        C923   1.449       .  S
C901        C908   1.383       .  S
C902        C916   1.453       .  S
C903        C905   1.435       .  S
C904        C913   1.453       .  S
C905        C906   1.205   1_556  T
C909        C910   1.217       .  T
C911        C912   1.217       .  T
C913        C914   1.217       .  T
C915        C916   1.217       .  T
C917        C918   1.214       .  T
C919        C920   1.214       .  T
C921        C922   1.214       .  T
C923        C924   1.214       .  T
