geometry optimzed in LAMMPS
_audit_creation_date              2020-11-30 
_audit_creation_method            'lammps2cif' 
_symmetry_space_group_name_H-M    'P1' 
_symmetry_Int_Tables_number       1 
_symmetry_cell_setting            triclinic 
loop_ 
_symmetry_equiv_pos_as_xyz 
  x,y,z 
_cell_length_a                    28.78112964 
_cell_length_b                    28.141319850709905 
_cell_length_c                    40.452990094020144 
_cell_angle_alpha                 90.01993065312868 
_cell_angle_beta                  90.06917112237 
_cell_angle_gamma                 86.70740751215264 
loop_ 
_atom_site_label 
_atom_site_type_symbol 
_atom_site_fract_x 
_atom_site_fract_y 
_atom_site_fract_z 
_atom_site_charge 
O1          O  0.96065163  0.90465492  0.46845838    -0.80400
O2          O  0.10874408  0.98018955  0.03547584    -0.80400
O3          O  0.05629245  0.00993103  0.43096752    -0.80400
O4          O  0.02286110  0.92305214  0.05787501    -0.80300
O5          O  0.10706966  0.98440919  0.46798585    -0.80500
O6          O  0.96147044  0.90071185  0.03364242    -0.80400
O7          O  0.05970237  0.00066181  0.07491461    -0.80400
O8          O  0.02083411  0.92977021  0.44418580    -0.80400
C9          C  0.99355399  0.89748518  0.44837746     1.09300
C10         C  0.10066020  0.98697418  0.06582147     1.09200
C11         C  0.09757067  0.99504277  0.43835035     1.09400
C12         C  0.99518771  0.89139840  0.05274858     1.09200
O13         O  0.92060133  0.99747172  0.04031677    -0.80400
O14         O  0.05657856  0.07653877  0.47175856    -0.80400
O15         O  0.96048343  0.00068029  0.42104412    -0.80400
O16         O  0.98533654  0.05763787  0.04114613    -0.80300
O17         O  0.05857660  0.07216366  0.03824223    -0.80400
O18         O  0.91914752  0.00148485  0.46758557    -0.80400
O19         O  0.96363110  0.99106219  0.08607627    -0.80300
O20         O  0.98341447  0.06154211  0.46944044    -0.80400
Co21       Co  0.95012342  0.95554392  0.50254660     1.51500
Co22       Co  0.07895648  0.02469663  0.00329392     1.51700
Co23       Co  0.00033409  0.99425021  0.45834842     1.51600
Co24       Co  0.00215633  0.98903033  0.04787302     1.51500
O25         O  0.02254125  0.98146933  0.50266189    -1.42300
C26         C  0.92405393  0.99834075  0.07236200     1.09300
C27         C  0.01489481  0.08998162  0.46499100     1.09400
C28         C  0.92143785  0.00592298  0.43565200     1.09300
C29         C  0.01734070  0.08531102  0.04628079     1.09300
C30         C  0.99739989  0.52574539  0.23518859     0.02100
C31         C  0.99112698  0.52823553  0.26984614     0.02000
C32         C  0.98645063  0.48610993  0.28777921    -0.18500
C33         C  0.98872349  0.44140421  0.27226111     0.02100
C34         C  0.99567159  0.43880280  0.23768020     0.02000
C35         C  0.99980485  0.48103630  0.21969279    -0.18500
H36         H  0.00362078  0.47916421  0.19304775     0.04100
H37         H  0.98262882  0.48802118  0.31442550     0.02700
C38         C  0.54863308  0.03651553  0.23580243     0.02100
C39         C  0.54798695  0.03901969  0.27081412     0.02000
C40         C  0.50538709  0.03765712  0.28763996    -0.18500
C41         C  0.46352441  0.03228190  0.27052456     0.02100
C42         C  0.46437076  0.02818351  0.23564615     0.02000
C43         C  0.50667503  0.03115666  0.21872111    -0.18500
H44         H  0.50703468  0.02841468  0.19198566     0.04100
H45         H  0.50495314  0.03974352  0.31440476     0.04100
C46         C  0.14006560  0.98273250  0.08949177    -0.03600
C47         C  0.18434373  0.96571031  0.07842920    -0.09300
C48         C  0.22323531  0.96727882  0.09898633    -0.17000
C49         C  0.21863859  0.98574291  0.13097437     0.25200
C50         C  0.17450519  0.00126742  0.14269329    -0.18700
C51         C  0.13536763  0.99968337  0.12210086    -0.07600
C52         C  0.25970073  0.99080114  0.15086909    -0.14000
C53         C  0.29533672  0.99608753  0.16588342    -0.13700
C54         C  0.33850023  0.00343898  0.18279564     0.25100
C55         C  0.35658546  0.96977633  0.20559332    -0.19100
C56         C  0.39804143  0.97740171  0.22237076    -0.07600
C57         C  0.42184452  0.01881671  0.21652558    -0.03700
C58         C  0.40411127  0.05196703  0.19314708    -0.09000
C59         C  0.36253912  0.04439820  0.17647394    -0.16600
H60         H  0.18925631  0.95241573  0.05347632     0.11500
H61         H  0.25713106  0.95516942  0.08960639     0.10800
H62         H  0.17052311  0.01569814  0.16742255     0.10700
H63         H  0.10184936  0.01327130  0.13126441     0.11200
H64         H  0.33848999  0.93783959  0.21057047     0.11300
H65         H  0.41138008  0.95127710  0.24016322     0.11300
H66         H  0.42192783  0.08413324  0.18838627     0.11400
H67         H  0.34896840  0.07064191  0.15883485     0.10200
C68         C  0.41951126  0.02987697  0.28952399    -0.03600
C69         C  0.38051675  0.06035032  0.28189973    -0.09300
C70         C  0.33807539  0.05532545  0.29800397    -0.17000
C71         C  0.33420961  0.02009838  0.32212499     0.25200
C72         C  0.37331851  0.99064718  0.33058949    -0.18700
C73         C  0.41574491  0.99554500  0.31443562    -0.07600
C74         C  0.29018377  0.01389836  0.33810332    -0.14000
C75         C  0.25418171  0.00808124  0.35245872    -0.13700
C76         C  0.21322458  0.00096016  0.37194949     0.25100
C77         C  0.21751674  0.97469418  0.40122721    -0.19100
C78         C  0.17915945  0.97097356  0.42195799    -0.07600
C79         C  0.13572341  0.99346930  0.41374681    -0.03700
C80         C  0.13108964  0.01818152  0.38359234    -0.09000
C81         C  0.16973791  0.02201844  0.36285202    -0.16600
H82         H  0.38279142  0.08752824  0.26312013     0.11500
H83         H  0.30820251  0.07858929  0.29142187     0.10800
H84         H  0.37085009  0.96345215  0.34935564     0.10700
H85         H  0.44530666  0.97169311  0.32072004     0.11200
H86         H  0.25089249  0.95815910  0.40852448     0.11300
H87         H  0.18389491  0.95158750  0.44495348     0.11300
H88         H  0.09820218  0.03613185  0.37672599     0.11400
H89         H  0.16599773  0.04246666  0.34022655     0.10200
C90         C  0.88199244  0.01036593  0.09265968    -0.03600
C91         C  0.83844088  0.01940548  0.07732599    -0.09300
C92         C  0.79813194  0.02780040  0.09624735    -0.17000
C93         C  0.80054169  0.02736076  0.13080721     0.25200
C94         C  0.84378350  0.01891492  0.14635356    -0.18700
C95         C  0.88424792  0.01051514  0.12744061    -0.07600
C96         C  0.75833530  0.03390784  0.15004930    -0.14000
C97         C  0.72196726  0.03740741  0.16506556    -0.13700
C98         C  0.67776743  0.03858985  0.18209721     0.25100
C99         C  0.64747754  0.00208748  0.17686599    -0.19100
C100        C  0.60521006  0.00195923  0.19391214    -0.07600
C101        C  0.59263432  0.03829301  0.21657678    -0.03700
C102        C  0.62268812  0.07547360  0.22119483    -0.09000
C103        C  0.66505885  0.07552332  0.20413541    -0.16600
H104        H  0.83532659  0.01930799  0.05064682     0.11500
H105        H  0.76493214  0.03404371  0.08387415     0.10800
H106        H  0.84615864  0.01822592  0.17307950     0.10700
H107        H  0.91712672  0.00338723  0.14003924     0.11200
H108        H  0.65677911  0.97337052  0.15984838     0.11300
H109        H  0.58273188  0.97290695  0.18995342     0.11300
H110        H  0.61349095  0.10422132  0.23819124     0.11400
H111        H  0.68800313  0.10413139  0.20831042     0.10200
C112        C  0.59146780  0.03989464  0.29050484    -0.03600
C113        C  0.62641864  0.00329424  0.28701730    -0.09300
C114        C  0.66767273  0.00424239  0.30519717    -0.17000
C115        C  0.67442829  0.04161671  0.32722209     0.25200
C116        C  0.63944660  0.07790298  0.33118804    -0.18700
C117        C  0.59806841  0.07696881  0.31300053    -0.07600
C118        C  0.71711471  0.04217129  0.34587696    -0.14000
C119        C  0.75308978  0.04041818  0.36132745    -0.13700
C120        C  0.79580069  0.03549443  0.38000662     0.25100
C121        C  0.79433829  0.03321081  0.41453901    -0.19100
C122        C  0.83541457  0.02515877  0.43269726    -0.07600
C123        C  0.87864512  0.01917016  0.41654485    -0.03700
C124        C  0.87992132  0.02268402  0.38184915    -0.09000
C125        C  0.83873696  0.03072376  0.36372519    -0.16600
H126        H  0.62170392  0.97399912  0.27019997     0.11500
H127        H  0.69430316  0.97579437  0.30208890     0.10800
H128        H  0.64417762  0.10688930  0.34826974     0.10700
H129        H  0.57144334  0.10539647  0.31613782     0.11200
H130        H  0.76133093  0.03670200  0.42741910     0.11300
H131        H  0.83314991  0.02251627  0.45934570     0.11300
H132        H  0.91258065  0.01806170  0.36865170     0.11400
H133        H  0.84030828  0.03227064  0.33699178     0.10200
C134        C  0.99676456  0.39331308  0.21906385    -0.03600
C135        C  0.95960867  0.36310921  0.22101611    -0.09300
C136        C  0.95851107  0.32317265  0.20043458    -0.17000
C137        C  0.99445466  0.31320589  0.17770977     0.25200
C138        C  0.03221433  0.34231126  0.17642235    -0.18700
C139        C  0.03336387  0.38213026  0.19693008    -0.07600
C140        C  0.99204056  0.27455465  0.15458886    -0.14000
C141        C  0.99242418  0.24352304  0.13402194    -0.13700
C142        C  0.99638348  0.20671367  0.10932213     0.25100
C143        C  0.03762220  0.19995278  0.09120969    -0.19100
C144        C  0.04350644  0.16176129  0.06926310    -0.07600
C145        C  0.00811416  0.12983195  0.06512918    -0.03700
C146        C  0.96590307  0.13815824  0.08227099    -0.09000
C147        C  0.96016889  0.17633503  0.10433739    -0.16600
H148        H  0.93073572  0.37137534  0.23757983     0.11500
H149        H  0.92911676  0.30085715  0.20162666     0.10800
H150        H  0.06026008  0.33486534  0.15899666     0.10700
H151        H  0.06234768  0.40489059  0.19504868     0.11200
H152        H  0.06579001  0.22339140  0.09477599     0.11300
H153        H  0.07634591  0.15630472  0.05637691     0.11300
H154        H  0.93812678  0.11401346  0.07975391     0.11400
H155        H  0.92806327  0.18131787  0.11818949     0.10200
C156        C  0.98577385  0.39856638  0.29334032    -0.03600
C157        C  0.94866247  0.39562471  0.31566109    -0.09300
C158        C  0.94761441  0.35758141  0.33777047    -0.17000
C159        C  0.98370131  0.32209929  0.33789485     0.25200
C160        C  0.02038485  0.32426249  0.31530105    -0.18700
C161        C  0.02148749  0.36235031  0.29314622    -0.07600
C162        C  0.98402829  0.28454699  0.36204735    -0.14000
C163        C  0.98584216  0.25337868  0.38252678    -0.13700
C164        C  0.99053227  0.21533156  0.40626910     0.25100
C165        C  0.03098562  0.20954988  0.42543844    -0.19100
C166        C  0.03792656  0.16991356  0.44605880    -0.07600
C167        C  0.00431016  0.13569078  0.44784949    -0.03700
C168        C  0.96275980  0.14295505  0.42968284    -0.09000
C169        C  0.95605497  0.18244066  0.40888916    -0.16600
H170        H  0.92083849  0.42321582  0.31625558     0.11500
H171        H  0.91910172  0.35629308  0.35514958     0.10800
H172        H  0.04859258  0.29705784  0.31528080     0.10700
H173        H  0.05080211  0.36428121  0.27653812     0.11200
H174        H  0.05785305  0.23485716  0.42363085     0.11300
H175        H  0.07023001  0.16521164  0.45974461     0.11300
H176        H  0.93642757  0.11697605  0.43028461     0.11400
H177        H  0.92465868  0.18650566  0.39410702     0.10200
C178        C  0.99980163  0.56886337  0.21420997    -0.03600
C179        C  0.03596399  0.57204467  0.19112264    -0.09300
C180        C  0.03722390  0.61143117  0.17015210    -0.17000
C181        C  0.00228784  0.64805389  0.17190345     0.25200
C182        C  0.96624814  0.64527245  0.19494719    -0.18700
C183        C  0.96490148  0.60584084  0.21591709    -0.07600
C184        C  0.00308523  0.68809825  0.14974713    -0.14000
C185        C  0.00347895  0.72170513  0.13123897    -0.13700
C186        C  0.00345255  0.76262829  0.10981916     0.25100
C187        C  0.03573585  0.79725780  0.11487442    -0.19100
C188        C  0.03418908  0.83834215  0.09538540    -0.07600
C189        C  0.00012697  0.84546762  0.07061726    -0.03700
C190        C  0.96855684  0.80990296  0.06511300    -0.09000
C191        C  0.97025207  0.76874692  0.08460974    -0.16600
H192        H  0.06317578  0.54393897  0.18931278     0.11500
H193        H  0.06526323  0.61316096  0.15242589     0.10800
H194        H  0.93892682  0.67331759  0.19645355     0.10700
H195        H  0.93622244  0.60378864  0.23306414     0.11200
H196        H  0.06156631  0.79294108  0.13431260     0.11300
H197        H  0.05882994  0.86514249  0.10035487     0.11300
H198        H  0.94188278  0.81439268  0.04628494     0.11400
H199        H  0.94510556  0.74215869  0.08044675     0.10200
C200        C  0.99207221  0.57355923  0.28849667    -0.03600
C201        C  0.03054157  0.60193835  0.28613884    -0.09300
C202        C  0.03282711  0.64287974  0.30556394    -0.17000
C203        C  0.99674558  0.65581998  0.32756224     0.25200
C204        C  0.95808440  0.62796317  0.32975134    -0.18700
C205        C  0.95580408  0.58698742  0.31040419    -0.07600
C206        C  0.99966412  0.69710898  0.34835724    -0.14000
C207        C  0.00114679  0.73128036  0.36626733    -0.13700
C208        C  0.00104076  0.77189729  0.38795366     0.25100
C209        C  0.96719917  0.77762285  0.41265816    -0.19100
C210        C  0.96565186  0.81785809  0.43296530    -0.07600
C211        C  0.99796105  0.85303347  0.42880325    -0.03700
C212        C  0.03245123  0.84659207  0.40431922    -0.09000
C213        C  0.03392982  0.80624518  0.38401342    -0.16600
H214        H  0.05921733  0.59181133  0.26980839     0.11500
H215        H  0.06297525  0.66407307  0.30374475     0.10800
H216        H  0.92996011  0.63762171  0.34667966     0.10700
H217        H  0.92591685  0.56551477  0.31266133     0.11200
H218        H  0.94157396  0.75128250  0.41593381     0.11300
H219        H  0.93859935  0.82184003  0.45151132     0.11300
H220        H  0.05767542  0.87315035  0.40042351     0.11400
H221        H  0.06028612  0.80217909  0.36496175     0.10200
O222        O  0.96065161  0.90465494  0.96845840    -0.80400
O223        O  0.10874410  0.98018954  0.53547585    -0.80400
O224        O  0.05629243  0.00993107  0.93096751    -0.80400
O225        O  0.02286110  0.92305209  0.55787498    -0.80300
O226        O  0.10706963  0.98440920  0.96798584    -0.80500
O227        O  0.96147042  0.90071182  0.53364240    -0.80400
O228        O  0.05970236  0.00066176  0.57491461    -0.80400
O229        O  0.02083406  0.92977026  0.94418580    -0.80400
C230        C  0.99355397  0.89748522  0.94837748     1.09300
C231        C  0.10066020  0.98697416  0.56582148     1.09200
C232        C  0.09757065  0.99504279  0.93835034     1.09400
C233        C  0.99518769  0.89139836  0.55274856     1.09200
O234        O  0.92060133  0.99747168  0.54031675    -0.80400
O235        O  0.05657857  0.07653880  0.97175855    -0.80400
O236        O  0.96048341  0.00068037  0.92104413    -0.80400
O237        O  0.98533654  0.05763782  0.54114614    -0.80300
O238        O  0.05857659  0.07216363  0.53824224    -0.80400
O239        O  0.91914752  0.00148491  0.96758559    -0.80400
O240        O  0.96363108  0.99106211  0.58607625    -0.80300
O241        O  0.98341448  0.06154217  0.96944045    -0.80400
Co242      Co  0.95012341  0.95554395  0.00254662     1.51500
Co243      Co  0.07895649  0.02469661  0.50329393     1.51700
Co244      Co  0.00033407  0.99425026  0.95834843     1.51600
Co245      Co  0.00215633  0.98903028  0.54787301     1.51500
O246        O  0.02254123  0.98146936  0.00266189    -1.42300
C247        C  0.92405393  0.99834067  0.57236198     1.09300
C248        C  0.01489483  0.08998167  0.96499100     1.09400
C249        C  0.92143784  0.00592305  0.93565202     1.09300
C250        C  0.01734069  0.08531098  0.54628081     1.09300
C251        C  0.99739990  0.52574545  0.73518861     0.02100
C252        C  0.99112696  0.52823554  0.76984617     0.02000
C253        C  0.98645057  0.48610993  0.78777920    -0.18500
C254        C  0.98872343  0.44140422  0.77226108     0.02100
C255        C  0.99567152  0.43880286  0.73768016     0.02000
C256        C  0.99980481  0.48103637  0.71969278    -0.18500
H257        H  0.00362076  0.47916433  0.69304774     0.04100
H258        H  0.98262875  0.48802114  0.81442548     0.02700
C259        C  0.54863311  0.03651559  0.73580245     0.02100
C260        C  0.54798696  0.03901976  0.77081414     0.02000
C261        C  0.50538710  0.03765720  0.78763997    -0.18500
C262        C  0.46352442  0.03228197  0.77052456     0.02100
C263        C  0.46437078  0.02818356  0.73564615     0.02000
C264        C  0.50667506  0.03115671  0.71872112    -0.18500
H265        H  0.50703472  0.02841472  0.69198568     0.04100
H266        H  0.50495314  0.03974360  0.81440477     0.04100
C267        C  0.14006559  0.98273253  0.58949180    -0.03600
C268        C  0.18434373  0.96571031  0.57842924    -0.09300
C269        C  0.22323531  0.96727885  0.59898638    -0.17000
C270        C  0.21863857  0.98574300  0.63097441     0.25200
C271        C  0.17450517  0.00126755  0.64269330    -0.18700
C272        C  0.13536762  0.99968346  0.62210087    -0.07600
C273        C  0.25970070  0.99080124  0.65086914    -0.14000
C274        C  0.29533668  0.99608763  0.66588348    -0.13700
C275        C  0.33850020  0.00343907  0.68279569     0.25100
C276        C  0.35658547  0.96977639  0.70559333    -0.19100
C277        C  0.39804146  0.97740175  0.72237076    -0.07600
C278        C  0.42184454  0.01881676  0.71652558    -0.03700
C279        C  0.40411126  0.05196712  0.69314712    -0.09000
C280        C  0.36253908  0.04439830  0.67647400    -0.16600
H281        H  0.18925632  0.95241569  0.55347637     0.11500
H282        H  0.25713106  0.95516943  0.58960645     0.10800
H283        H  0.17052308  0.01569832  0.66742255     0.10700
H284        H  0.10184934  0.01327142  0.63126439     0.11200
H285        H  0.33849001  0.93783966  0.71057048     0.11300
H286        H  0.41138014  0.95127712  0.74016320     0.11300
H287        H  0.42192781  0.08413333  0.68838632     0.11400
H288        H  0.34896834  0.07064205  0.65883493     0.10200
C289        C  0.41951127  0.02987701  0.78952399    -0.03600
C290        C  0.38051674  0.06035034  0.78189973    -0.09300
C291        C  0.33807538  0.05532546  0.79800399    -0.17000
C292        C  0.33420964  0.02009842  0.82212503     0.25200
C293        C  0.37331856  0.99064724  0.83058952    -0.18700
C294        C  0.41574495  0.99554506  0.81443563    -0.07600
C295        C  0.29018382  0.01389838  0.83810338    -0.14000
C296        C  0.25418174  0.00808128  0.85245877    -0.13700
C297        C  0.21322459  0.00096020  0.87194952     0.25100
C298        C  0.21751670  0.97469415  0.90122721    -0.19100
C299        C  0.17915941  0.97097352  0.92195798    -0.07600
C300        C  0.13572339  0.99346932  0.91374681    -0.03700
C301        C  0.13108966  0.01818160  0.88359236    -0.09000
C302        C  0.16973794  0.02201853  0.86285205    -0.16600
H303        H  0.38279138  0.08752825  0.76312011     0.11500
H304        H  0.30820250  0.07858927  0.79142189     0.10800
H305        H  0.37085016  0.96345221  0.84935569     0.10700
H306        H  0.44530670  0.97169320  0.82072005     0.11200
H307        H  0.25089245  0.95815904  0.90852448     0.11300
H308        H  0.18389483  0.95158743  0.94495344     0.11300
H309        H  0.09820221  0.03613198  0.87672601     0.11400
H310        H  0.16599779  0.04246679  0.84022660     0.10200
C311        C  0.88199243  0.01036583  0.59265966    -0.03600
C312        C  0.83844083  0.01940520  0.57732597    -0.09300
C313        C  0.79813190  0.02780014  0.59624734    -0.17000
C314        C  0.80054170  0.02736070  0.63080719     0.25200
C315        C  0.84378355  0.01891503  0.64635354    -0.18700
C316        C  0.88424794  0.01051522  0.62744058    -0.07600
C317        C  0.75833533  0.03390784  0.65004930    -0.14000
C318        C  0.72196731  0.03740746  0.66506559    -0.13700
C319        C  0.67776749  0.03858991  0.68209725     0.25100
C320        C  0.64747760  0.00208755  0.67686603    -0.19100
C321        C  0.60521011  0.00195928  0.69391217    -0.07600
C322        C  0.59263436  0.03829307  0.71657681    -0.03700
C323        C  0.62268817  0.07547367  0.72119486    -0.09000
C324        C  0.66505890  0.07552338  0.70413545    -0.16600
H325        H  0.83532651  0.01930757  0.55064680     0.11500
H326        H  0.76493208  0.03404333  0.58387415     0.10800
H327        H  0.84615870  0.01822619  0.67307949     0.10700
H328        H  0.91712675  0.00338745  0.64003920     0.11200
H329        H  0.65677915  0.97337058  0.65984843     0.11300
H330        H  0.58273193  0.97290701  0.68995345     0.11300
H331        H  0.61349099  0.10422138  0.73819128     0.11400
H332        H  0.68800317  0.10413143  0.70831045     0.10200
C333        C  0.59146781  0.03989465  0.79050486    -0.03600
C334        C  0.62641865  0.00329429  0.78701728    -0.09300
C335        C  0.66767275  0.00424241  0.80519714    -0.17000
C336        C  0.67442829  0.04161669  0.82722210     0.25200
C337        C  0.63944661  0.07790294  0.83118810    -0.18700
C338        C  0.59806841  0.07696880  0.81300059    -0.07600
C339        C  0.71711471  0.04217124  0.84587699    -0.14000
C340        C  0.75308976  0.04041814  0.86132749    -0.13700
C341        C  0.79580066  0.03549442  0.88000667     0.25100
C342        C  0.79433826  0.03321075  0.91453905    -0.19100
C343        C  0.83541456  0.02515875  0.93269729    -0.07600
C344        C  0.87864511  0.01917022  0.91654489    -0.03700
C345        C  0.87992130  0.02268415  0.88184919    -0.09000
C346        C  0.83873693  0.03072385  0.86372523    -0.16600
H347        H  0.62170394  0.97399919  0.77019993     0.11500
H348        H  0.69430320  0.97579440  0.80208885     0.10800
H349        H  0.64417763  0.10688921  0.84826983     0.10700
H350        H  0.57144333  0.10539645  0.81613791     0.11200
H351        H  0.76133089  0.03670187  0.92741914     0.11300
H352        H  0.83314989  0.02251620  0.95934573     0.11300
H353        H  0.91258062  0.01806190  0.86865174     0.11400
H354        H  0.84030825  0.03227079  0.83699181     0.10200
C355        C  0.99676448  0.39331315  0.71906378    -0.03600
C356        C  0.95960863  0.36310924  0.72101609    -0.09300
C357        C  0.95851105  0.32317264  0.70043459    -0.17000
C358        C  0.99445462  0.31320591  0.67770975     0.25200
C359        C  0.03221425  0.34231132  0.67642229    -0.18700
C360        C  0.03336376  0.38213035  0.69693000    -0.07600
C361        C  0.99204052  0.27455464  0.65458886    -0.14000
C362        C  0.99242414  0.24352302  0.63402195    -0.13700
C363        C  0.99638345  0.20671362  0.60932215     0.25100
C364        C  0.03762214  0.19995278  0.59120967    -0.19100
C365        C  0.04350638  0.16176128  0.56926309    -0.07600
C366        C  0.00811414  0.12983189  0.56512921    -0.03700
C367        C  0.96590309  0.13815813  0.58227106    -0.09000
C368        C  0.96016889  0.17633492  0.60433746    -0.16600
H369        H  0.93073570  0.37137533  0.73757983     0.11500
H370        H  0.92911678  0.30085711  0.70162670     0.10800
H371        H  0.06025999  0.33486541  0.65899658     0.10700
H372        H  0.06234756  0.40489070  0.69504857     0.11200
H373        H  0.06578992  0.22339145  0.59477594     0.11300
H374        H  0.07634583  0.15630476  0.55637686     0.11300
H375        H  0.93812683  0.11401332  0.57975402     0.11400
H376        H  0.92806330  0.18131772  0.61818960     0.10200
C377        C  0.98577379  0.39856637  0.79334026    -0.03600
C378        C  0.94866248  0.39562470  0.81566107    -0.09300
C379        C  0.94761445  0.35758138  0.83777044    -0.17000
C380        C  0.98370133  0.32209924  0.83789475     0.25200
C381        C  0.02038480  0.32426241  0.81530091    -0.18700
C382        C  0.02148742  0.36235027  0.79314609    -0.07600
C383        C  0.98402835  0.28454694  0.86204727    -0.14000
C384        C  0.98584218  0.25337867  0.88252673    -0.13700
C385        C  0.99053227  0.21533160  0.90626907     0.25100
C386        C  0.03098559  0.20954995  0.92543845    -0.19100
C387        C  0.03792653  0.16991363  0.94605881    -0.07600
C388        C  0.00431017  0.13569083  0.94784948    -0.03700
C389        C  0.96275981  0.14295506  0.92968281    -0.09000
C390        C  0.95605499  0.18244068  0.90888912    -0.16600
H391        H  0.92083853  0.42321582  0.81625560     0.11500
H392        H  0.91910181  0.35629307  0.85514959     0.10800
H393        H  0.04859251  0.29705775  0.81528060     0.10700
H394        H  0.05080202  0.36428116  0.77653795     0.11200
H395        H  0.05785300  0.23485725  0.92363087     0.11300
H396        H  0.07022996  0.16521173  0.95974465     0.11300
H397        H  0.93642759  0.11697603  0.93028456     0.11400
H398        H  0.92465871  0.18650564  0.89410696     0.10200
C399        C  0.99980170  0.56886346  0.71421003    -0.03600
C400        C  0.03596411  0.57204475  0.69112272    -0.09300
C401        C  0.03722404  0.61143124  0.67015219    -0.17000
C402        C  0.00228799  0.64805395  0.67190350     0.25200
C403        C  0.96624828  0.64527253  0.69494724    -0.18700
C404        C  0.96490157  0.60584094  0.71591715    -0.07600
C405        C  0.00308534  0.68809826  0.64974714    -0.14000
C406        C  0.00347900  0.72170512  0.63123896    -0.13700
C407        C  0.00345255  0.76262827  0.60981916     0.25100
C408        C  0.03573584  0.79725780  0.61487441    -0.19100
C409        C  0.03418905  0.83834215  0.59538540    -0.07600
C410        C  0.00012693  0.84546761  0.57061727    -0.03700
C411        C  0.96855677  0.80990296  0.56511302    -0.09000
C412        C  0.97025204  0.76874691  0.58460977    -0.16600
H413        H  0.06317590  0.54393902  0.68931289     0.11500
H414        H  0.06526338  0.61316100  0.65242600     0.10800
H415        H  0.93892695  0.67331767  0.69645358     0.10700
H416        H  0.93622253  0.60378874  0.73306418     0.11200
H417        H  0.06156631  0.79294108  0.63431258     0.11300
H418        H  0.05882990  0.86514249  0.60035486     0.11300
H419        H  0.94188269  0.81439268  0.54628497     0.11400
H420        H  0.94510552  0.74215869  0.58044679     0.10200
C421        C  0.99207224  0.57355923  0.78849674    -0.03600
C422        C  0.03054161  0.60193835  0.78613886    -0.09300
C423        C  0.03282717  0.64287973  0.80556397    -0.17000
C424        C  0.99674570  0.65581996  0.82756231     0.25200
C425        C  0.95808454  0.62796313  0.82975146    -0.18700
C426        C  0.95580416  0.58698738  0.81040430    -0.07600
C427        C  0.99966425  0.69710897  0.84835729    -0.14000
C428        C  0.00114691  0.73128036  0.86626737    -0.13700
C429        C  0.00104084  0.77189729  0.88795371     0.25100
C430        C  0.96719922  0.77762284  0.91265819    -0.19100
C431        C  0.96565189  0.81785810  0.93296533    -0.07600
C432        C  0.99796107  0.85303350  0.92880329    -0.03700
C433        C  0.03245127  0.84659208  0.90431928    -0.09000
C434        C  0.03392990  0.80624519  0.88401349    -0.16600
H435        H  0.05921733  0.59181132  0.76980837     0.11500
H436        H  0.06297528  0.66407305  0.80374473     0.10800
H437        H  0.92996030  0.63762163  0.84667982     0.10700
H438        H  0.92591694  0.56551471  0.81266148     0.11200
H439        H  0.94157402  0.75128249  0.91593383     0.11300
H440        H  0.93859934  0.82184003  0.95151133     0.11300
H441        H  0.05767546  0.87315036  0.90042359     0.11400
H442        H  0.06028624  0.80217909  0.86496183     0.10200
loop_ 
_geom_bond_atom_site_label_1 
_geom_bond_atom_site_label_2 
_geom_bond_distance 
_geom_bond_site_symmetry_2 
_ccdc_geom_bond_type 
O1            C9   1.256       .  A
O1          Co21   1.999       .  S
O2           C10   1.262       .  A
O2          Co22   1.968   1_565  S
O3           C11   1.272   1_545  A
O3          Co23   2.025   1_545  S
O4           C12   1.246   1_455  A
O4          Co24   1.959       .  S
O5           C11   1.262       .  A
O5         Co243   1.969   1_565  S
O6           C12   1.256       .  A
O6         Co242   2.003       .  S
O7           C10   1.274   1_545  A
O7          Co24   2.026   1_545  S
O8            C9   1.246   1_455  A
O8          Co23   1.961       .  S
C9          C211   1.480       .  S
C10          C46   1.483       .  S
C11          C79   1.482       .  S
C12         C189   1.481   1_655  S
O13          C26   1.300       .  A
O13        Co242   2.082       .  S
O14          C27   1.267       .  A
O14        Co243   2.015       .  S
O15          C28   1.271       .  A
O15         Co23   1.897   1_645  S
O16          C29   1.257   1_655  A
O16         Co24   1.982   1_645  S
O17          C29   1.266       .  A
O17         Co22   2.009       .  S
O18          C28   1.300       .  A
O18         Co21   2.081   1_545  S
O19          C26   1.272       .  A
O19         Co24   1.902   1_655  S
O20          C27   1.256   1_655  A
O20         Co23   1.980   1_645  S
Co21        O227   2.003       .  S
Co21        O234   2.082       .  S
Co21         O25   2.247   1_655  S
Co22        O226   1.969   1_544  S
Co22        O235   2.015   1_554  S
Co22        O246   2.084   1_545  S
Co23         O25   1.929       .  S
Co24        O246   1.929       .  S
O25        Co243   2.084   1_565  S
O25        Co245   1.929       .  S
C26          C90   1.486   1_565  S
C27         C167   1.478       .  S
C28         C123   1.483       .  S
C29         C145   1.478       .  S
C30         C178   1.486       .  S
C30          C31   1.415       .  A
C30          C35   1.404       .  A
C31         C200   1.483       .  S
C31          C32   1.403       .  A
C32          C33   1.404       .  A
C32          H37   1.085       .  S
C33         C156   1.483       .  S
C33          C34   1.415       .  A
C34         C134   1.484       .  S
C34          C35   1.405       .  A
C35          H36   1.085   1_655  S
C38         C101   1.490       .  S
C38          C39   1.418       .  A
C38          C43   1.406       .  A
C39         C112   1.484       .  S
C39          C40   1.406       .  A
C40          C41   1.405       .  A
C40          H45   1.084       .  S
C41          C68   1.487       .  S
C41          C42   1.416       .  A
C42          C57   1.483       .  S
C42          C43   1.404       .  A
C43          H44   1.084       .  S
C46          C47   1.409       .  A
C46          C51   1.407       .  A
C47          C48   1.396       .  A
C47          H60   1.083       .  S
C48          C49   1.398       .  A
C48          H61   1.084       .  S
C49          C50   1.402   1_565  A
C49          C52   1.443       .  S
C50          C51   1.403   1_545  A
C50          H62   1.083       .  S
C51          H63   1.083   1_565  S
C52          C53   1.208       .  T
C53          C54   1.443   1_565  S
C54          C55   1.401   1_545  A
C54          C59   1.402       .  A
C55          C56   1.399       .  A
C55          H64   1.083       .  S
C56          C57   1.406   1_565  A
C56          H65   1.083       .  S
C57          C58   1.404       .  A
C58          C59   1.400       .  A
C58          H66   1.083       .  S
C59          H67   1.083       .  S
C68          C69   1.407       .  A
C68          C73   1.405   1_545  A
C69          C70   1.399       .  A
C69          H82   1.083       .  S
C70          C71   1.400       .  A
C70          H83   1.083       .  S
C71          C72   1.401   1_545  A
C71          C74   1.443       .  S
C72          C73   1.399       .  A
C72          H84   1.083       .  S
C73          H85   1.083       .  S
C74          C75   1.208       .  T
C75          C76   1.443       .  S
C76          C77   1.398   1_545  A
C76          C81   1.402       .  A
C77          C78   1.396       .  A
C77          H86   1.084       .  S
C78          C79   1.408       .  A
C78          H87   1.083       .  S
C79          C80   1.407   1_565  A
C80          C81   1.403       .  A
C80          H88   1.083       .  S
C81          H89   1.083       .  S
C90          C91   1.408       .  A
C90          C95   1.408       .  A
C91          C92   1.399       .  A
C91         H104   1.083       .  S
C92          C93   1.400       .  A
C92         H105   1.084       .  S
C93          C94   1.402       .  A
C93          C96   1.446       .  S
C94          C95   1.403       .  A
C94         H106   1.083       .  S
C95         H107   1.083       .  S
C96          C97   1.210       .  T
C97          C98   1.446       .  S
C98          C99   1.401       .  A
C98         C103   1.402       .  A
C99         C100   1.399       .  A
C99         H108   1.083   1_545  S
C100        C101   1.405       .  A
C100        H109   1.083   1_545  S
C101        C102   1.408       .  A
C102        C103   1.402       .  A
C102        H110   1.083       .  S
C103        H111   1.083       .  S
C112        C113   1.405       .  A
C112        C117   1.405       .  A
C113        C114   1.397       .  A
C113        H126   1.083   1_545  S
C114        C115   1.400       .  A
C114        H127   1.083   1_545  S
C115        C116   1.402       .  A
C115        C118   1.442       .  S
C116        C117   1.401       .  A
C116        H128   1.083       .  S
C117        H129   1.083       .  S
C118        C119   1.207       .  T
C119        C120   1.442       .  S
C120        C121   1.399       .  A
C120        C125   1.401       .  A
C121        C122   1.399       .  A
C121        H130   1.084       .  S
C122        C123   1.408       .  A
C122        H131   1.083       .  S
C123        C124   1.408       .  A
C124        C125   1.400       .  A
C124        H132   1.083       .  S
C125        H133   1.083       .  S
C134        C135   1.406       .  A
C134        C139   1.405   1_655  A
C135        C136   1.400       .  A
C135        H148   1.083       .  S
C136        C137   1.401       .  A
C136        H149   1.083       .  S
C137        C138   1.399   1_655  A
C137        C140   1.439       .  S
C138        C139   1.396       .  A
C138        H150   1.084       .  S
C139        H151   1.083       .  S
C140        C141   1.206       .  T
C141        C142   1.439       .  S
C142        C143   1.399   1_655  A
C142        C147   1.400       .  A
C143        C144   1.397       .  A
C143        H152   1.084       .  S
C144        C145   1.406       .  A
C144        H153   1.083       .  S
C145        C146   1.407   1_455  A
C146        C147   1.399       .  A
C146        H154   1.083       .  S
C147        H155   1.083       .  S
C156        C157   1.406       .  A
C156        C161   1.405   1_655  A
C157        C158   1.397       .  A
C157        H170   1.083       .  S
C158        C159   1.399       .  A
C158        H171   1.083       .  S
C159        C160   1.401   1_655  A
C159        C162   1.439       .  S
C160        C161   1.399       .  A
C160        H172   1.083       .  S
C161        H173   1.083       .  S
C162        C163   1.206       .  T
C163        C164   1.439       .  S
C164        C165   1.400   1_655  A
C164        C169   1.399       .  A
C165        C166   1.398       .  A
C165        H174   1.083       .  S
C166        C167   1.406       .  A
C166        H175   1.083       .  S
C167        C168   1.408   1_455  A
C168        C169   1.398       .  A
C168        H176   1.083       .  S
C169        H177   1.084       .  S
C178        C179   1.406   1_655  A
C178        C183   1.406       .  A
C179        C180   1.398       .  A
C179        H192   1.083       .  S
C180        C181   1.400       .  A
C180        H193   1.083       .  S
C181        C182   1.401   1_455  A
C181        C184   1.441       .  S
C182        C183   1.399       .  A
C182        H194   1.083       .  S
C183        H195   1.083       .  S
C184        C185   1.207       .  T
C185        C186   1.441       .  S
C186        C187   1.399       .  A
C186        C191   1.401   1_455  A
C187        C188   1.398       .  A
C187        H196   1.084       .  S
C188        C189   1.407       .  A
C188        H197   1.083       .  S
C189        C190   1.407   1_455  A
C190        C191   1.400       .  A
C190        H198   1.083       .  S
C191        H199   1.083       .  S
C200        C201   1.405   1_655  A
C200        C205   1.405       .  A
C201        C202   1.399       .  A
C201        H214   1.083       .  S
C202        C203   1.401   1_455  A
C202        H215   1.083       .  S
C203        C204   1.400       .  A
C203        C206   1.441       .  S
C204        C205   1.398       .  A
C204        H216   1.084       .  S
C205        H217   1.083       .  S
C206        C207   1.206   1_655  T
C207        C208   1.440       .  S
C208        C209   1.399   1_455  A
C208        C213   1.400       .  A
C209        C210   1.397       .  A
C209        H218   1.084       .  S
C210        C211   1.407       .  A
C210        H219   1.083       .  S
C211        C212   1.407   1_655  A
C212        C213   1.400       .  A
C212        H220   1.083       .  S
C213        H221   1.083       .  S
O222        C230   1.256       .  A
O222       Co242   1.999   1_556  S
O223        C231   1.262       .  A
O223       Co243   1.968   1_565  S
O224        C232   1.272   1_545  A
O224       Co244   2.025   1_545  S
O225        C233   1.246   1_455  A
O225       Co245   1.959       .  S
O226        C232   1.262       .  A
O227        C233   1.256       .  A
O228        C231   1.274   1_545  A
O228       Co245   2.026   1_545  S
O229        C230   1.246   1_455  A
O229       Co244   1.961       .  S
C230        C432   1.480       .  S
C231        C267   1.483       .  S
C232        C300   1.482       .  S
C233        C410   1.481   1_655  S
O234        C247   1.300       .  A
O235        C248   1.267       .  A
O236        C249   1.271       .  A
O236       Co244   1.897   1_645  S
O237        C250   1.257   1_655  A
O237       Co245   1.982   1_645  S
O238        C250   1.266       .  A
O238       Co243   2.009       .  S
O239        C249   1.300       .  A
O239       Co242   2.081   1_546  S
O240        C247   1.272       .  A
O240       Co245   1.902   1_655  S
O241        C248   1.256   1_655  A
O241       Co244   1.980   1_645  S
Co242       O246   2.247   1_655  S
Co244       O246   1.929   1_556  S
C247        C311   1.486   1_565  S
C248        C388   1.478       .  S
C249        C344   1.483       .  S
C250        C366   1.478       .  S
C251        C399   1.486       .  S
C251        C252   1.415       .  A
C251        C256   1.404       .  A
C252        C421   1.483       .  S
C252        C253   1.403       .  A
C253        C254   1.404       .  A
C253        H258   1.085       .  S
C254        C377   1.483       .  S
C254        C255   1.415       .  A
C255        C355   1.484       .  S
C255        C256   1.405       .  A
C256        H257   1.085   1_655  S
C259        C322   1.490       .  S
C259        C260   1.418       .  A
C259        C264   1.406       .  A
C260        C333   1.484       .  S
C260        C261   1.406       .  A
C261        C262   1.405       .  A
C261        H266   1.084       .  S
C262        C289   1.487       .  S
C262        C263   1.416       .  A
C263        C278   1.483       .  S
C263        C264   1.404       .  A
C264        H265   1.084       .  S
C267        C268   1.409       .  A
C267        C272   1.407       .  A
C268        C269   1.396       .  A
C268        H281   1.083       .  S
C269        C270   1.398       .  A
C269        H282   1.084       .  S
C270        C271   1.402   1_565  A
C270        C273   1.443       .  S
C271        C272   1.403   1_545  A
C271        H283   1.083       .  S
C272        H284   1.083   1_565  S
C273        C274   1.208       .  T
C274        C275   1.443   1_565  S
C275        C276   1.401   1_545  A
C275        C280   1.402       .  A
C276        C277   1.399       .  A
C276        H285   1.083       .  S
C277        C278   1.406   1_565  A
C277        H286   1.083       .  S
C278        C279   1.404       .  A
C279        C280   1.400       .  A
C279        H287   1.083       .  S
C280        H288   1.083       .  S
C289        C290   1.407       .  A
C289        C294   1.405   1_545  A
C290        C291   1.399       .  A
C290        H303   1.083       .  S
C291        C292   1.400       .  A
C291        H304   1.083       .  S
C292        C293   1.401   1_545  A
C292        C295   1.443       .  S
C293        C294   1.399       .  A
C293        H305   1.083       .  S
C294        H306   1.083       .  S
C295        C296   1.208       .  T
C296        C297   1.443       .  S
C297        C298   1.398   1_545  A
C297        C302   1.402       .  A
C298        C299   1.396       .  A
C298        H307   1.084       .  S
C299        C300   1.408       .  A
C299        H308   1.083       .  S
C300        C301   1.407   1_565  A
C301        C302   1.403       .  A
C301        H309   1.083       .  S
C302        H310   1.083       .  S
C311        C312   1.408       .  A
C311        C316   1.408       .  A
C312        C313   1.399       .  A
C312        H325   1.083       .  S
C313        C314   1.400       .  A
C313        H326   1.084       .  S
C314        C315   1.402       .  A
C314        C317   1.446       .  S
C315        C316   1.403       .  A
C315        H327   1.083       .  S
C316        H328   1.083       .  S
C317        C318   1.210       .  T
C318        C319   1.446       .  S
C319        C320   1.401       .  A
C319        C324   1.402       .  A
C320        C321   1.399       .  A
C320        H329   1.083   1_545  S
C321        C322   1.405       .  A
C321        H330   1.083   1_545  S
C322        C323   1.408       .  A
C323        C324   1.402       .  A
C323        H331   1.083       .  S
C324        H332   1.083       .  S
C333        C334   1.405       .  A
C333        C338   1.405       .  A
C334        C335   1.397       .  A
C334        H347   1.083   1_545  S
C335        C336   1.400       .  A
C335        H348   1.083   1_545  S
C336        C337   1.402       .  A
C336        C339   1.442       .  S
C337        C338   1.401       .  A
C337        H349   1.083       .  S
C338        H350   1.083       .  S
C339        C340   1.207       .  T
C340        C341   1.442       .  S
C341        C342   1.399       .  A
C341        C346   1.401       .  A
C342        C343   1.399       .  A
C342        H351   1.084       .  S
C343        C344   1.408       .  A
C343        H352   1.083       .  S
C344        C345   1.408       .  A
C345        C346   1.400       .  A
C345        H353   1.083       .  S
C346        H354   1.083       .  S
C355        C356   1.406       .  A
C355        C360   1.405   1_655  A
C356        C357   1.400       .  A
C356        H369   1.083       .  S
C357        C358   1.401       .  A
C357        H370   1.083       .  S
C358        C359   1.399   1_655  A
C358        C361   1.439       .  S
C359        C360   1.396       .  A
C359        H371   1.084       .  S
C360        H372   1.083       .  S
C361        C362   1.206       .  T
C362        C363   1.439       .  S
C363        C364   1.399   1_655  A
C363        C368   1.400       .  A
C364        C365   1.397       .  A
C364        H373   1.084       .  S
C365        C366   1.406       .  A
C365        H374   1.083       .  S
C366        C367   1.407   1_455  A
C367        C368   1.399       .  A
C367        H375   1.083       .  S
C368        H376   1.083       .  S
C377        C378   1.406       .  A
C377        C382   1.405   1_655  A
C378        C379   1.397       .  A
C378        H391   1.083       .  S
C379        C380   1.399       .  A
C379        H392   1.083       .  S
C380        C381   1.401   1_655  A
C380        C383   1.439       .  S
C381        C382   1.399       .  A
C381        H393   1.083       .  S
C382        H394   1.083       .  S
C383        C384   1.206       .  T
C384        C385   1.439       .  S
C385        C386   1.400   1_655  A
C385        C390   1.399       .  A
C386        C387   1.398       .  A
C386        H395   1.083       .  S
C387        C388   1.406       .  A
C387        H396   1.083       .  S
C388        C389   1.408   1_455  A
C389        C390   1.398       .  A
C389        H397   1.083       .  S
C390        H398   1.084       .  S
C399        C400   1.406   1_655  A
C399        C404   1.406       .  A
C400        C401   1.398       .  A
C400        H413   1.083       .  S
C401        C402   1.400       .  A
C401        H414   1.083       .  S
C402        C403   1.401   1_455  A
C402        C405   1.441       .  S
C403        C404   1.399       .  A
C403        H415   1.083       .  S
C404        H416   1.083       .  S
C405        C406   1.207       .  T
C406        C407   1.441       .  S
C407        C408   1.399       .  A
C407        C412   1.401   1_455  A
C408        C409   1.398       .  A
C408        H417   1.084       .  S
C409        C410   1.407       .  A
C409        H418   1.083       .  S
C410        C411   1.407   1_455  A
C411        C412   1.400       .  A
C411        H419   1.083       .  S
C412        H420   1.083       .  S
C421        C422   1.405   1_655  A
C421        C426   1.405       .  A
C422        C423   1.399       .  A
C422        H435   1.083       .  S
C423        C424   1.401   1_455  A
C423        H436   1.083       .  S
C424        C425   1.400       .  A
C424        C427   1.441       .  S
C425        C426   1.398       .  A
C425        H437   1.084       .  S
C426        H438   1.083       .  S
C427        C428   1.206   1_655  T
C428        C429   1.440       .  S
C429        C430   1.399   1_455  A
C429        C434   1.400       .  A
C430        C431   1.397       .  A
C430        H439   1.084       .  S
C431        C432   1.407       .  A
C431        H440   1.083       .  S
C432        C433   1.407   1_655  A
C433        C434   1.400       .  A
C433        H441   1.083       .  S
C434        H442   1.083       .  S
