geometry optimzed in LAMMPS
_audit_creation_date              2020-12-01 
_audit_creation_method            'lammps2cif' 
_symmetry_space_group_name_H-M    'P1' 
_symmetry_Int_Tables_number       1 
_symmetry_cell_setting            triclinic 
loop_ 
_symmetry_equiv_pos_as_xyz 
  x,y,z 
_cell_length_a                    40.19985767 
_cell_length_b                    37.9715281640259 
_cell_length_c                    70.55825535141 
_cell_angle_alpha                 89.26237844474679 
_cell_angle_beta                  89.54787973860967 
_cell_angle_gamma                 89.63348629077565 
loop_ 
_atom_site_label 
_atom_site_type_symbol 
_atom_site_fract_x 
_atom_site_fract_y 
_atom_site_fract_z 
_atom_site_charge 
N1          N  0.04039123  0.98874864  0.50259709    -0.36600
N2          N  0.49035337  0.48082335  0.47344787    -0.57200
N3          N  0.44053807  0.49588132  0.50232233    -0.36600
N4          N  0.49051121  0.00492658  0.53088377    -0.57200
C5          C  0.05883632  0.48834589  0.48646339     0.27000
C6          C  0.05956540  0.00288654  0.51620459     0.27000
C7          C  0.42343478  0.49988458  0.48597760     0.27000
C8          C  0.42295589  0.01267285  0.51595415     0.27000
C9          C  0.01646038  0.46535728  0.46476178     0.35600
C10         C  0.46279102  0.46948826  0.46467626     0.35600
C11         C  0.01733565  0.00649573  0.54213367     0.35600
C12         C  0.46353230  0.00868029  0.54218704     0.35600
C13         C  0.08997799  0.50226470  0.48985522    -0.21900
C14         C  0.09053752  0.01121303  0.50859887    -0.21900
C15         C  0.39502357  0.51987334  0.48920336    -0.21900
C16         C  0.39461020  0.02777707  0.50814586    -0.21900
C17         C  0.00560247  0.44402130  0.45031831    -0.23000
C18         C  0.47141329  0.44634640  0.45036789    -0.23000
C19         C  0.00741961  0.01120727  0.56080002    -0.23000
C20         C  0.47320838  0.01209508  0.56088721    -0.23000
C21         C  0.04986164  0.47176230  0.46942074    -0.18300
C22         C  0.05048278  0.00766065  0.53545499    -0.18300
C23         C  0.43082215  0.01317750  0.53544915    -0.18300
C24         C  0.43042010  0.48174484  0.46899904    -0.18300
H25         H  0.11051116  0.50488722  0.47993042     0.14600
H26         H  0.11163342  0.02226880  0.51580462     0.14600
H27         H  0.37602049  0.52701803  0.47904741     0.14600
H28         H  0.37539814  0.04263007  0.51539256     0.14600
H29         H  0.02071120  0.42841412  0.44078928     0.12900
H30         H  0.45490382  0.43300749  0.44082139     0.12900
H31         H  0.02320521  0.01447472  0.57300185     0.12900
H32         H  0.45740412  0.01665876  0.57311216     0.12900
H33         H  0.01768513  0.97624512  0.50465532     0.26200
H34         H  0.46036192  0.47858649  0.50455181     0.26100
N35         N  0.44304412  0.26403000  0.50154447    -0.36600
N36         N  0.98986582  0.26540694  0.53290307    -0.57200
N37         N  0.04379691  0.25528949  0.50496874    -0.36600
N38         N  0.99641167  0.25768593  0.47391974    -0.57200
C39         C  0.42284439  0.27307077  0.51610515     0.27000
C40         C  0.42608827  0.27026528  0.48535271     0.27000
C41         C  0.06184739  0.25696064  0.52103338     0.27000
C42         C  0.06524302  0.25634711  0.49003573     0.27000
C43         C  0.46127667  0.26260280  0.54305588     0.35600
C44         C  0.01503124  0.25831744  0.54502704     0.35600
C45         C  0.47063078  0.25532556  0.46196127     0.35600
C46         C  0.02425680  0.25206566  0.46359145     0.35600
C47         C  0.39265076  0.28509644  0.50914401    -0.21900
C48         C  0.39473561  0.28353820  0.48973533    -0.21900
C49         C  0.09541309  0.25825231  0.51614407    -0.21900
C50         C  0.09745002  0.25858655  0.49673055    -0.21900
C51         C  0.46833377  0.25499011  0.56184382    -0.23000
C52         C  0.00229497  0.25284021  0.56316096    -0.23000
C53         C  0.48209270  0.24788588  0.44387054    -0.23000
C54         C  0.01613885  0.24595332  0.44485727    -0.23000
C55         C  0.42887463  0.26564256  0.53543974    -0.18300
C56         C  0.43714150  0.26218768  0.46678974    -0.18300
C57         C  0.05702724  0.25416138  0.47052243    -0.18300
C58         C  0.04921985  0.25501517  0.53996018    -0.18300
H59         H  0.37102567  0.29311564  0.51728972     0.14600
H60         H  0.37501549  0.29047682  0.47999424     0.14600
H61         H  0.11667110  0.25857885  0.52539844     0.14600
H62         H  0.12030673  0.25944737  0.48854425     0.14600
H63         H  0.45087635  0.25064377  0.57336827     0.12900
H64         H  0.01600000  0.24681705  0.57594918     0.12900
H65         H  0.46750961  0.24470191  0.43118498     0.12900
H66         H  0.03300188  0.24095536  0.43314784     0.12900
H67         H  0.46477778  0.24918403  0.50276789     0.26200
H68         H  0.01843255  0.25086747  0.50439244     0.26100
C69         C  0.32233212  0.43045711  0.42398629     0.42500
N70         N  0.28058483  0.42201861  0.40593554     0.01300
C71         C  0.18459248  0.27064743  0.40487689    -0.06500
H72         H  0.31689066  0.25244608  0.39208552     0.06800
C73         C  0.30037017  0.32454484  0.33232840    -0.06900
Co74       Co  0.24630454  0.35481132  0.41674116     0.74200
N75         N  0.28283148  0.29450540  0.39980958    -0.26100
Co76       Co  0.24460897  0.29743986  0.37971063     0.74100
C77         C  0.31550789  0.29031600  0.33688308     0.42600
N78         N  0.27718669  0.40821941  0.34957280     0.01000
N79         N  0.27902570  0.30310694  0.35806451     0.01100
N80         N  0.18792727  0.30926210  0.42890028    -0.46900
H81         H  0.31430263  0.37779872  0.43963898     0.06800
N82         N  0.28293144  0.31709208  0.41382609     0.01300
N83         N  0.20698809  0.30193144  0.35958168     0.01100
C84         C  0.16905813  0.28785420  0.33963945     0.42700
N85         N  0.27783314  0.43045683  0.36378717    -0.25500
C86         C  0.18497937  0.39312978  0.43178488    -0.06400
N87         N  0.30457872  0.44482779  0.40958048    -0.46600
N88         N  0.18613997  0.27664758  0.35501024    -0.46900
C89         C  0.16688962  0.42556246  0.42796083     0.42500
N90         N  0.21097584  0.31535813  0.41587105     0.01300
N91         N  0.20548466  0.43040244  0.36556643    -0.25500
N92         N  0.28172698  0.39398411  0.41712796    -0.26000
N93         N  0.20498981  0.40882900  0.35104243     0.01000
H94         H  0.18389354  0.48164755  0.36995611     0.06900
H95         H  0.17827223  0.33823484  0.32204532     0.06900
N96         N  0.20977138  0.29323023  0.40167250    -0.26100
N97         N  0.27784736  0.33002766  0.34609612    -0.25700
N98         N  0.20737661  0.42059760  0.40795862     0.01300
C99         C  0.32644956  0.28582864  0.41860762     0.42700
C100        C  0.30069505  0.45519927  0.35979030    -0.06900
N101        N  0.20538750  0.32925913  0.34785133    -0.25700
H102        H  0.30295315  0.34037399  0.31955267     0.06900
N103        N  0.30836194  0.31280042  0.42533104    -0.46900
H104        H  0.30429818  0.47891427  0.36782574     0.06900
C105        C  0.17114984  0.45098288  0.34322371     0.42600
C106        C  0.30754424  0.39666311  0.42870997    -0.06400
Co107      Co  0.24272256  0.42680759  0.38592583     0.73800
N108        N  0.29831294  0.41670787  0.33580927    -0.46600
C109        C  0.17032826  0.28150554  0.42304543     0.42800
N110        N  0.18175935  0.44120254  0.41267769    -0.46600
Co111      Co  0.24119965  0.36904171  0.34829727     0.73900
C112        C  0.18214373  0.32278726  0.33483351    -0.07000
C113        C  0.30966420  0.27324034  0.40163355    -0.06500
N114        N  0.20956288  0.39257790  0.41911400    -0.26000
N115        N  0.30104367  0.27894977  0.35308422    -0.46800
H116        H  0.17689367  0.24993043  0.39552754     0.06800
C117        C  0.18479240  0.45750711  0.36198939    -0.06900
Cl118      Cl  0.24355899  0.36205906  0.38262908    -0.49900
C119        C  0.31456087  0.44595048  0.34116187     0.42600
H120        H  0.17977253  0.37215393  0.44177097     0.06800
N121        N  0.18529872  0.42053739  0.33732389    -0.46600
C122        C  0.31543943  0.06019861  0.57620387     0.42500
N123        N  0.27461670  0.07004365  0.59505610     0.01300
C124        C  0.17831529  0.22123091  0.60082460    -0.06500
H125        H  0.30825116  0.24331208  0.60483435     0.06800
C126        C  0.30167000  0.17216065  0.66771817    -0.06900
Co127      Co  0.23922209  0.13712959  0.58500778     0.74200
N128        N  0.27700275  0.19831525  0.59990513    -0.26100
Co129      Co  0.24200652  0.19604578  0.62194232     0.74100
C130        C  0.31465527  0.20727330  0.66300841     0.42600
N131        N  0.27858014  0.08637365  0.65082844     0.01000
N132        N  0.27930087  0.19164652  0.64196662     0.01100
N133        N  0.17667759  0.18161430  0.57712405    -0.46900
H134        H  0.30476229  0.11051066  0.55881951     0.06800
N135        N  0.27579559  0.17550343  0.58602257     0.01300
N136        N  0.20718152  0.19240428  0.64401758     0.01100
C137        C  0.17253228  0.20634763  0.66619006     0.42700
N138        N  0.27656286  0.06305442  0.63720041    -0.25500
C139        C  0.18018350  0.09547410  0.57098206    -0.06400
N140        N  0.29884411  0.04714972  0.59142527    -0.46600
N141        N  0.18672323  0.21762345  0.64976862    -0.46900
C142        C  0.16182495  0.06404183  0.57643059     0.42500
N143        N  0.20299491  0.17645386  0.58800229     0.01300
N144        N  0.20456615  0.06502121  0.63884960    -0.25500
N145        N  0.27456038  0.09716913  0.58315110    -0.26000
N146        N  0.20661157  0.08714821  0.65304719     0.01000
H147        H  0.18134300  0.01449860  0.63637441     0.06900
H148        H  0.18436504  0.15545749  0.68284792     0.06900
N149        N  0.20435026  0.19905739  0.60202016    -0.26100
N150        N  0.27982440  0.16491224  0.65406992    -0.25700
N151        N  0.20155098  0.07223422  0.59624960     0.01300
C152        C  0.31588974  0.20997330  0.57790496     0.42700
C153        C  0.29751662  0.03638582  0.64121318    -0.06900
N154        N  0.20761764  0.16522058  0.65580432    -0.25700
H155        H  0.30418040  0.15737013  0.68083936     0.06900
N156        N  0.29840461  0.18156085  0.57272706    -0.46900
H157        H  0.29770492  0.01136693  0.63406797     0.06900
C158        C  0.17308256  0.04688867  0.66326126     0.42600
C159        C  0.29916398  0.09296519  0.57055031    -0.06400
Co160      Co  0.23913271  0.06673635  0.61677412     0.73800
N161        N  0.29984258  0.07694055  0.66414544    -0.46600
C162        C  0.16011481  0.20951390  0.58431844     0.42800
N163        N  0.17701275  0.05033835  0.59206562    -0.46600
Co164      Co  0.24324968  0.12589875  0.65364551     0.73900
C165        C  0.18629354  0.17128657  0.67003224    -0.07000
C166        C  0.30168909  0.22122565  0.59612484    -0.06500
N167        N  0.20317347  0.09899568  0.58422394    -0.26000
N168        N  0.29954180  0.21730651  0.64678431    -0.46800
H169        H  0.17253095  0.24224720  0.61053579     0.06800
C170        C  0.18372987  0.03901458  0.64386966    -0.06900
Cl171      Cl  0.24093883  0.13139224  0.61935136    -0.49900
C172        C  0.31299777  0.04553232  0.65926772     0.42600
H173        H  0.17973931  0.11087213  0.55804078     0.06800
N174        N  0.18842007  0.07715486  0.66783126    -0.46600
N175        N  0.29167792  0.51231334  0.00468523    -0.36600
N176        N  0.24235086  0.49910090  0.03413901    -0.57200
N177        N  0.19107628  0.50196983  0.00591110    -0.36600
N178        N  0.24039012  0.01328154  0.97581148    -0.57200
C179        C  0.31108219  0.50096933  0.01917920     0.27000
C180        C  0.31010230  0.00986134  0.98858635     0.27000
C181        C  0.17467061  0.48703732  0.02078414     0.27000
C182        C  0.17338450  0.99522019  0.99015395     0.27000
C183        C  0.26913969  0.50370538  0.04517145     0.35600
C184        C  0.21563629  0.49904402  0.04582250     0.35600
C185        C  0.26627418  0.02633157  0.96548562     0.35600
C186        C  0.21206008  0.02156680  0.96637390     0.35600
C187        C  0.34208928  0.49119950  0.01217436    -0.21900
C188        C  0.34150317  0.49692601  0.99291848    -0.21900
C189        C  0.14646948  0.47021891  0.01437996    -0.21900
C190        C  0.14572515  0.97526302  0.99503998    -0.21900
C191        C  0.25944758  0.50672499  0.06398454    -0.23000
C192        C  0.22538668  0.50384845  0.06439291    -0.23000
C193        C  0.25438529  0.04289452  0.94928202    -0.23000
C194        C  0.22006648  0.04029906  0.94995698    -0.23000
C195        C  0.30224519  0.50090310  0.03867323    -0.18300
C196        C  0.30038751  0.02204974  0.97037838    -0.18300
C197        C  0.17961270  0.01003132  0.97192985    -0.18300
C198        C  0.18331474  0.49041895  0.04007952    -0.18300
H199        H  0.36319450  0.48140801  0.02012919     0.14600
H200        H  0.36206618  0.99251411  0.98322316     0.14600
H201        H  0.12806671  0.45623781  0.02279734     0.14600
H202        H  0.12654398  0.96601711  0.98567767     0.14600
H203        H  0.27534943  0.50963386  0.07616464     0.12900
H204        H  0.20974455  0.50393895  0.07694977     0.12900
H205        H  0.26889814  0.05558329  0.93819408     0.12900
H206        H  0.20304214  0.05047954  0.93939039     0.12900
H207        H  0.26867538  0.52482688  0.00594354     0.26200
H208        H  0.21060859  0.51974799  0.00673671     0.26100
N209        N  0.18867845  0.26072919  0.00233449    -0.36600
N210        N  0.23733411  0.24828033  0.97245665    -0.57200
N211        N  0.28971417  0.25322118  0.00048361    -0.36600
N212        N  0.24111875  0.26171733  0.03087797    -0.57200
C213        C  0.16797273  0.25203743  0.98812229     0.27000
C214        C  0.17046871  0.26045097  0.01855078     0.27000
C215        C  0.30723047  0.23999347  0.98573454     0.27000
C216        C  0.30890991  0.24940816  0.01605035     0.27000
C217        C  0.20972589  0.24864043  0.96160285     0.35600
C218        C  0.26381923  0.24533018  0.96062159     0.35600
C219        C  0.21535918  0.27301731  0.04159027     0.35600
C220        C  0.26885886  0.27013412  0.04040692     0.35600
C221        C  0.13606992  0.24732031  0.99545280    -0.21900
C222        C  0.13771148  0.25247721  0.01457875    -0.21900
C223        C  0.33783872  0.22761562  0.99211802    -0.21900
C224        C  0.33895965  0.23385911  0.01120157    -0.21900
C225        C  0.21871186  0.24585265  0.94267313    -0.23000
C226        C  0.25296737  0.24406689  0.94203364    -0.23000
C227        C  0.22666522  0.28762047  0.05822237    -0.23000
C228        C  0.26068691  0.28608426  0.05739490    -0.23000
C229        C  0.17659538  0.24804540  0.96869384    -0.18300
C230        C  0.18170719  0.27011367  0.03665783    -0.18300
C231        C  0.30142684  0.26269975  0.03416320    -0.18300
C232        C  0.29720817  0.24000476  0.96652214    -0.18300
H233        H  0.11365560  0.24097585  0.98786016     0.14600
H234        H  0.11697575  0.25092391  0.02442864     0.14600
H235        H  0.35760150  0.21563771  0.98387362     0.14600
H236        H  0.35964553  0.22793170  0.02046645     0.14600
H237        H  0.20228575  0.24448181  0.93062878     0.12900
H238        H  0.26807124  0.24081575  0.92940322     0.12900
H239        H  0.21195761  0.29874727  0.06960891     0.12900
H240        H  0.27742554  0.29564324  0.06807803     0.12900
H241        H  0.21289734  0.26953135  0.00090776     0.26200
H242        H  0.26803675  0.26810803  0.99961134     0.26100
C243        C  0.41111847  0.05129106  0.91881873     0.42500
N244        N  0.43166103  0.08222097  0.89595137     0.01300
C245        C  0.08186136  0.08150526  0.84715012    -0.06500
H246        H  0.10334736  0.09508269  0.91468918     0.06800
C247        C  0.03447903  0.20912519  0.91847101    -0.06900
Co248      Co  0.49812597  0.05974754  0.88081155     0.74200
N249        N  0.05601958  0.08702156  0.90144537    -0.26100
Co250      Co  0.05546456  0.12774187  0.88147445     0.74100
C251        C  0.06588881  0.19499616  0.92635686     0.42600
N252        N  0.44859424  0.18311492  0.90049731     0.01000
N253        N  0.05059612  0.16322702  0.90317590     0.01100
N254        N  0.04484784  0.03736057  0.84929337    -0.46900
H255        H  0.45791839  0.01512955  0.91944301     0.06800
N256        N  0.03395577  0.06135663  0.90235274     0.01300
N257        N  0.05491430  0.17131832  0.86232913     0.01100
C258        C  0.06820715  0.21637276  0.84471569     0.42700
N259        N  0.42776012  0.15776797  0.89630297    -0.25500
C260        C  0.46536211  0.03477214  0.84459227    -0.06400
N261        N  0.40538371  0.07861715  0.90713164    -0.46600
N262        N  0.07906736  0.18427832  0.85120261    -0.46900
C263        C  0.43781532  0.04514668  0.83264413     0.42500
N264        N  0.03756752  0.06246730  0.86139205     0.01300
N265        N  0.43824504  0.16324826  0.85582488    -0.25500
N266        N  0.45569314  0.05911538  0.89943167    -0.26000
N267        N  0.45853232  0.18944940  0.85952770     0.01000
H268        H  0.40041708  0.15711152  0.83443895     0.06900
H269        H  0.01754264  0.24258434  0.85067518     0.06900
N270        N  0.05857269  0.08904049  0.86043170    -0.26100
N271        N  0.02635914  0.18682031  0.90443621    -0.25700
N272        N  0.44236320  0.08240026  0.85508194     0.01300
C273        C  0.07278810  0.04598657  0.92159409     0.42700
C274        C  0.40027485  0.16073099  0.90662028    -0.06900
N275        N  0.02972636  0.19354701  0.86364055    -0.25700
H276        H  0.02173797  0.23352967  0.92166838     0.06900
N277        N  0.04344036  0.03553169  0.91416130    -0.46900
H278        H  0.37829869  0.14500505  0.90463711     0.06900
C279        C  0.43354159  0.20668386  0.83428243     0.42600
C280        C  0.44471225  0.03773031  0.91373206    -0.06400
Co281      Co  0.43468172  0.12135691  0.87536490     0.73800
N282        N  0.43560036  0.20475231  0.91341521    -0.46600
C283        C  0.07253176  0.04668300  0.83963104     0.42800
N284        N  0.42406829  0.07470503  0.84008144    -0.46600
Co285      Co  0.49065748  0.18881782  0.88251112     0.73900
C286        C  0.03515659  0.22141674  0.85255525    -0.07000
C287        C  0.08087288  0.07984625  0.91331711    -0.06500
N288        N  0.46596868  0.05880364  0.85814884    -0.26000
N289        N  0.07392995  0.16699485  0.91592391    -0.46800
H290        H  0.10317593  0.09775745  0.84410043     0.06800
C291        C  0.42053721  0.17216374  0.84030582    -0.06900
Cl292      Cl  0.49479198  0.12439832  0.88014256    -0.49900
C293        C  0.40514736  0.19141914  0.91818475     0.42600
H294        H  0.48099959  0.01152745  0.84393762     0.06800
N295        N  0.45652939  0.21556350  0.84705316    -0.46600
N296        N  0.14517355  0.37538990  0.72645230    -0.36600
N297        N  0.13950922  0.43136519  0.75407635    -0.57200
N298        N  0.13048319  0.37857188  0.78341253    -0.36600
N299        N  0.13878351  0.32236184  0.75655898    -0.57200
C300        C  0.15682077  0.40321896  0.71633628     0.27000
C301        C  0.15570106  0.34592654  0.71762846     0.27000
C302        C  0.13412393  0.40800256  0.79382964     0.27000
C303        C  0.13473417  0.35037518  0.79513824     0.27000
C304        C  0.13726279  0.45028467  0.73780225     0.35600
C305        C  0.12796751  0.45236362  0.76800707     0.35600
C306        C  0.13365021  0.30286231  0.74098934     0.35600
C307        C  0.12554844  0.30415988  0.77134375     0.35600
C308        C  0.17504442  0.39135219  0.70089085    -0.21900
C309        C  0.17438990  0.35508431  0.70172416    -0.21900
C310        C  0.14126515  0.39851465  0.81238260    -0.21900
C311        C  0.14202900  0.36216507  0.81317444    -0.21900
C312        C  0.12475984  0.48364558  0.74140960    -0.23000
C313        C  0.11867487  0.48491141  0.76056922    -0.23000
C314        C  0.11731071  0.27201803  0.74582947    -0.23000
C315        C  0.11170747  0.27306289  0.76505341    -0.23000
C316        C  0.14932994  0.43885291  0.72007563    -0.18300
C317        C  0.14637712  0.31131122  0.72283261    -0.18300
C318        C  0.12729577  0.31490589  0.79045455    -0.18300
C319        C  0.12701449  0.44277964  0.78741129    -0.18300
H320        H  0.18715593  0.40717315  0.69002616     0.14600
H321        H  0.18587797  0.33749790  0.69160929     0.14600
H322        H  0.14453894  0.41598375  0.82421547     0.14600
H323        H  0.14591686  0.34622462  0.82579788     0.14600
H324        H  0.12075136  0.00491424  0.73131269     0.12900
H325        H  0.10886475  0.00734507  0.76813965     0.12900
H326        H  0.11028221  0.25099648  0.73647976     0.12900
H327        H  0.09914275  0.25302394  0.77340391     0.12900
H328        H  0.12773991  0.37641813  0.73741732     0.26200
H329        H  0.12025904  0.37786041  0.76993189     0.26100
N330        N  0.36760926  0.43173830  0.74889078    -0.36600
N331        N  0.34870650  0.37806423  0.72220675    -0.57200
N332        N  0.36374916  0.32410054  0.75021558    -0.36600
N333        N  0.38475856  0.37778242  0.77646443    -0.57200
C334        C  0.36602941  0.45062587  0.73255652     0.27000
C335        C  0.38560508  0.45063901  0.76120852     0.27000
C336        C  0.36134441  0.30455533  0.73438469     0.27000
C337        C  0.37977948  0.30415783  0.76330904     0.27000
C338        C  0.33629833  0.40689045  0.71330406     0.35600
C339        C  0.33544690  0.34991832  0.71360312     0.35600
C340        C  0.38804207  0.40647968  0.78742538     0.35600
C341        C  0.38582663  0.34941368  0.78821156     0.35600
C342        C  0.38331075  0.48186173  0.73447137    -0.21900
C343        C  0.39546526  0.48200072  0.75262944    -0.21900
C344        C  0.37577693  0.27174995  0.73751752    -0.21900
C345        C  0.38726287  0.27143101  0.75580657    -0.21900
C346        C  0.31478886  0.39702286  0.69907111    -0.23000
C347        C  0.31441506  0.36083105  0.69919215    -0.23000
C348        C  0.39136334  0.39631197  0.80625420    -0.23000
C349        C  0.38994317  0.36010183  0.80675177    -0.23000
C350        C  0.34695436  0.44162633  0.71662400    -0.18300
C351        C  0.39131715  0.44129865  0.78034576    -0.18300
C352        C  0.38634170  0.31405831  0.78214634    -0.18300
C353        C  0.34427169  0.31464338  0.71771397    -0.18300
H354        H  0.38616428  0.00277163  0.72401799     0.14600
H355        H  0.40961418  0.00302171  0.75883782     0.14600
H356        H  0.37738208  0.25005445  0.72774660     0.14600
H357        H  0.39955229  0.24947351  0.76280995     0.14600
H358        H  0.30137268  0.41407785  0.68934167     0.12900
H359        H  0.30059782  0.34443096  0.68964233     0.12900
H360        H  0.39519021  0.41315184  0.81829365     0.12900
H361        H  0.39239443  0.34349920  0.81925358     0.12900
H362        H  0.35367924  0.40945812  0.75218751     0.26200
H363        H  0.35187013  0.34801912  0.75267874     0.26100
N364        N  0.09927474  0.11699386  0.22567405    -0.36600
N365        N  0.10941203  0.17327985  0.25274191    -0.57200
N366        N  0.12900264  0.12120817  0.28110153    -0.36600
N367        N  0.11573117  0.06491064  0.25491319    -0.57200
C368        C  0.08452562  0.14434301  0.21644788     0.27000
C369        C  0.08928119  0.08706694  0.21726441     0.27000
C370        C  0.12809821  0.15063502  0.29168098     0.27000
C371        C  0.12953733  0.09329352  0.29322525     0.27000
C372        C  0.10452918  0.19280418  0.23686042     0.35600
C373        C  0.12253296  0.19510611  0.26565010     0.35600
C374        C  0.11422285  0.04341401  0.23982933     0.35600
C375        C  0.12872562  0.04556180  0.26931904     0.35600
C376        C  0.06527178  0.13167531  0.20183703    -0.21900
C377        C  0.06830699  0.09555010  0.20232901    -0.21900
C378        C  0.12833542  0.14137347  0.31075183    -0.21900
C379        C  0.12920571  0.10519426  0.31172741    -0.21900
C380        C  0.11422210  0.22729825  0.23976874    -0.23000
C381        C  0.12570792  0.22872872  0.25801686    -0.23000
C382        C  0.12613258  0.01019977  0.24470093    -0.23000
C383        C  0.13516446  0.01151279  0.26340038    -0.23000
C384        C  0.08940311  0.18047959  0.22020586    -0.18300
C385        C  0.09953432  0.05238975  0.22225785    -0.18300
C386        C  0.13293911  0.05756423  0.28804930    -0.18300
C387        C  0.12971927  0.18557647  0.28459293    -0.18300
H388        H  0.05065160  0.14688339  0.19180210     0.14600
H389        H  0.05638830  0.07758438  0.19276245     0.13400
H390        H  0.12840057  0.15887488  0.32273803     0.14600
H391        H  0.13014413  0.08949375  0.32462176     0.14600
H392        H  0.11292741  0.24920326  0.22982694     0.12900
H393        H  0.13492177  0.25194346  0.26494862     0.12900
H394        H  0.12757852  0.48721149  0.23581406     0.12900
H395        H  0.14497651  0.48974553  0.27173052     0.12900
H396        H  0.11778729  0.11877780  0.23578102     0.26200
H397        H  0.13338230  0.12046979  0.26661271     0.26100
N398        N  0.37197976  0.06531286  0.25439026    -0.36600
N399        N  0.38183561  0.12045297  0.22563908    -0.57200
N400        N  0.37041748  0.17219283  0.25369297    -0.36600
N401        N  0.36281645  0.11669956  0.28309565    -0.57200
C402        C  0.38600743  0.04712823  0.24010307     0.27000
C403        C  0.37452091  0.04509948  0.27023040     0.27000
C404        C  0.38317310  0.19266523  0.23959506     0.27000
C405        C  0.37232982  0.19060311  0.26983295     0.27000
C406        C  0.37940226  0.09209542  0.21449266     0.35600
C407        C  0.37924687  0.14902883  0.21415145     0.35600
C408        C  0.35162681  0.08802942  0.29270197     0.35600
C409        C  0.35107265  0.14501180  0.29241683     0.35600
C410        C  0.39808031  0.01511221  0.24696156    -0.21900
C411        C  0.39061460  0.01376343  0.26603410    -0.21900
C412        C  0.39324702  0.22454385  0.24691384    -0.21900
C413        C  0.38617063  0.22333276  0.26601057    -0.21900
C414        C  0.37513491  0.10262576  0.19575768    -0.23000
C415        C  0.37499846  0.13883661  0.19555005    -0.23000
C416        C  0.33304589  0.09814045  0.30834464    -0.23000
C417        C  0.33278056  0.13436799  0.30819991    -0.23000
C418        C  0.38476886  0.05715840  0.22080901    -0.18300
C419        C  0.35935315  0.05301287  0.28775471    -0.18300
C420        C  0.35829544  0.18023143  0.28737966    -0.18300
C421        C  0.38422201  0.18384158  0.22019928    -0.18300
H422        H  0.40997614  0.49438587  0.23893273     0.14600
H423        H  0.39561909  0.49191457  0.27561600     0.14600
H424        H  0.40408852  0.24659828  0.23927691     0.14600
H425        H  0.39023352  0.24436730  0.27592245     0.14600
H426        H  0.37322434  0.08596944  0.18348480     0.12900
H427        H  0.37292840  0.15569236  0.18312216     0.12900
H428        H  0.32100288  0.08125153  0.31875346     0.12900
H429        H  0.32059310  0.15097329  0.31853233     0.12900
H430        H  0.35716472  0.08776939  0.25281020     0.26200
H431        H  0.35711157  0.14890597  0.25216367     0.26100
C432        C  0.41542908  0.45601002  0.08136343     0.42500
N433        N  0.45498363  0.44256451  0.10033279     0.01300
C434        C  0.05193658  0.29214164  0.10018894    -0.06500
H435        H  0.41768067  0.27196468  0.10461042     0.06800
C436        C  0.42714419  0.32685870  0.16970273    -0.06900
Co437      Co  0.49090939  0.37779314  0.08795575     0.74200
N438        N  0.45182232  0.31506938  0.10054948    -0.26100
Co439      Co  0.48664360  0.31162189  0.12237629     0.74100
C440        C  0.41530579  0.29209109  0.16436047     0.42600
N441        N  0.45004766  0.41524528  0.15564720     0.01000
N442        N  0.44922263  0.31181577  0.14297326     0.01100
N443        N  0.05220873  0.33555670  0.07809885    -0.46900
H444        H  0.42744713  0.40932940  0.06213914     0.06800
N445        N  0.45382143  0.34036873  0.08763006     0.01300
N446        N  0.02077734  0.30993276  0.14434236     0.01100
C447        C  0.05228526  0.28917843  0.16633475     0.42700
N448        N  0.45131698  0.43961446  0.14219426    -0.25500
C449        C  0.05397893  0.42003114  0.07755766    -0.06400
N450        N  0.43077371  0.46596250  0.09740673    -0.46600
N451        N  0.03943717  0.28245141  0.14914521    -0.46900
C452        C  0.07060148  0.45086702  0.08474346     0.42500
N453        N  0.52588765  0.33786272  0.08923411     0.01300
N454        N  0.02382327  0.43796187  0.14449897    -0.25500
N455        N  0.45601642  0.41806683  0.08728261    -0.26000
N456        N  0.02197972  0.41281182  0.15753818     0.01000
H457        H  0.05071959  0.48680491  0.14329154     0.06900
H458        H  0.04012624  0.33591374  0.18562007     0.06900
N459        N  0.52487515  0.31276447  0.10225680    -0.26100
N460        N  0.44824357  0.33666648  0.15585517    -0.25700
N461        N  0.52791617  0.44006022  0.10210889     0.01300
C462        C  0.41112713  0.31088459  0.07936530     0.42700
C463        C  0.42857841  0.46438713  0.14595957    -0.06900
N464        N  0.02008733  0.33429594  0.15749354    -0.25700
H465        H  0.42555035  0.33907970  0.18344689     0.06900
N466        N  0.43019292  0.33873464  0.07483149    -0.46900
H467        H  0.42698800  0.48966546  0.13876273     0.06900
C468        C  0.05831111  0.44846496  0.16841252     0.42600
C469        C  0.43227027  0.42461092  0.07458722    -0.06400
Co470      Co  0.48958308  0.44097010  0.12231797     0.73800
N471        N  0.42836079  0.42306625  0.16914535    -0.46600
C472        C  0.07019912  0.30748557  0.08396456     0.42800
N473        N  0.05326542  0.46214692  0.10005038    -0.46600
Co474      Co  0.48504689  0.37485753  0.15688228     0.73900
C475        C  0.03933892  0.32364435  0.17188037    -0.07000
C476        C  0.42544108  0.29495319  0.09657379    -0.06500
N477        N  0.52792572  0.41537745  0.08912399    -0.26000
N478        N  0.43039088  0.28456338  0.14768593    -0.46800
H479        H  0.05837124  0.27078285  0.10970050     0.06800
C480        C  0.04653376  0.46141060  0.14997969    -0.06900
Cl481      Cl  0.48806249  0.37632648  0.12242309    -0.49900
C482        C  0.41424765  0.45420937  0.16429248     0.42600
H483        H  0.06017814  0.40416476  0.06539619     0.06800
N484        N  0.04198722  0.41816226  0.17199167    -0.46600
C485        C  0.42233922  0.03147943  0.19691601    -0.09200
C486        C  0.39185295  0.03017948  0.20651810     0.07000
C487        C  0.36917579  0.00311527  0.20275819    -0.02900
C488        C  0.37686183  0.47840169  0.18887039    -0.07400
C489        C  0.40702928  0.48032755  0.17885109     0.06100
C490        C  0.43037152  0.50655407  0.18335766    -0.02400
Br491      Br  0.47445143  0.50873215  0.17265037    -0.02100
H492        H  0.44017211  0.05173466  0.20024619     0.10100
H493        H  0.35925413  0.45778066  0.18582522     0.08100
Br494      Br  0.32759643  0.99924340  0.21614803    -0.02500
C495        C  0.37127618  0.24102760  0.20361596    -0.09200
C496        C  0.39245249  0.21168033  0.20583078     0.07000
C497        C  0.42170262  0.20967127  0.19470270    -0.02900
C498        C  0.42818306  0.23549033  0.18087295    -0.07400
C499        C  0.40677902  0.26454810  0.17849972     0.06100
C500        C  0.37870018  0.26776863  0.19040469    -0.02400
Br501      Br  0.34999695  0.30828152  0.18916559    -0.02100
H502        H  0.34916487  0.24334820  0.21239825     0.10100
H503        H  0.45070273  0.23350847  0.17240207     0.08100
Br504      Br  0.45476923  0.17366946  0.19878251    -0.02500
C505        C  0.09728136  0.49465363  0.17866271    -0.09200
C506        C  0.07119178  0.47163484  0.18334991     0.07000
C507        C  0.05666470  0.47329701  0.20168025    -0.02900
C508        C  0.06645823  0.99958337  0.21411245    -0.07400
C509        C  0.09156938  0.02341213  0.20907425     0.06100
C510        C  0.10801505  0.01986498  0.19152091    -0.02400
Br511      Br  0.14562002  0.04834934  0.18480837    -0.02100
H512        H  0.10931350  0.49306638  0.16490137     0.10100
H513        H  0.05416645  0.00173328  0.22777656     0.08100
Br514      Br  0.52248740  0.44192348  0.21069649    -0.02500
C515        C  0.04322774  0.25663586  0.19670059    -0.09200
C516        C  0.06138315  0.26071983  0.17973511     0.07000
C517        C  0.08720403  0.23679792  0.17555104    -0.02900
C518        C  0.09572299  0.21047904  0.18873952    -0.07400
C519        C  0.07817299  0.20702472  0.20592640     0.06100
C520        C  0.05111473  0.22973308  0.20963132    -0.02400
Br521      Br  0.02375789  0.22434783  0.23188192    -0.02100
H522        H  0.02245978  0.27402254  0.19977570     0.10100
H523        H  0.11634351  0.19288000  0.18569907     0.08100
Br524      Br  0.11217373  0.23983967  0.15231358    -0.02500
C525        C  0.06998590  0.99185840  0.82108554    -0.09200
C526        C  0.08860326  0.02182010  0.82587769     0.07000
C527        C  0.12094529  0.02524938  0.81786363    -0.02900
C528        C  0.13351967  0.49903455  0.80571497    -0.07400
C529        C  0.11463840  0.46921559  0.80133322     0.06100
C530        C  0.08257852  0.96597553  0.80911750    -0.02400
Br531      Br  0.55423267  0.92721703  0.80321272    -0.02100
H532        H  0.04501051  0.98827751  0.82660943     0.10100
H533        H  0.15810068  0.50201322  0.79952033     0.08100
Br534      Br  0.14973834  0.06407443  0.82261799    -0.02500
C535        C  0.11350300  0.23176157  0.82124333    -0.09200
C536        C  0.08692335  0.24273625  0.83287856     0.07000
C537        C  0.07758858  0.27894338  0.83212639    -0.02900
C538        C  0.09082353  0.30116247  0.81816732    -0.07400
C539        C  0.11615856  0.28994499  0.80592146     0.06100
C540        C  0.12884993  0.25529239  0.80832204    -0.02400
Br541      Br  0.16750478  0.23910846  0.79478585    -0.02100
H542        H  0.12226199  0.20475947  0.82208282     0.10100
H543        H  0.08140614  0.32791046  0.81705637     0.08100
Br544      Br  0.05021082  0.30251961  0.85056367    -0.02500
C545        C  0.37974345  0.98815674  0.80405897    -0.09200
C546        C  0.40295313  0.46914267  0.79324138     0.07000
C547        C  0.43690652  0.47720437  0.79449374    -0.02900
C548        C  0.44721805  0.50370082  0.80658876    -0.07400
C549        C  0.42424249  0.02227253  0.81785039     0.06100
C550        C  0.39011128  0.01442505  0.81646353    -0.02400
Br551      Br  0.35705872  0.03598210  0.83234788    -0.02100
H552        H  0.35355156  0.98191052  0.80317110     0.10100
H553        H  0.47357887  0.50913016  0.80760876     0.08100
Br554      Br  0.47007705  0.45201533  0.78031553    -0.02500
C555        C  0.38711607  0.23583804  0.81649391    -0.09200
C556        C  0.42138485  0.23181839  0.81967742     0.07000
C557        C  0.44379577  0.25447866  0.81004810    -0.02900
C558        C  0.43180107  0.28150695  0.79833031    -0.07400
C559        C  0.39764280  0.28614126  0.79559090     0.06100
C560        C  0.37518482  0.26272855  0.80446100    -0.02400
Br561      Br  0.32816165  0.26712986  0.80067519    -0.02100
H562        H  0.36957248  0.21873947  0.82375426     0.10100
H563        H  0.44924217  0.29864779  0.79099416     0.08100
Br564      Br  0.49118052  0.24850897  0.81120884    -0.02500
C565        C  0.14563892  0.25672310  0.06474978    -0.09200
C566        C  0.15621191  0.28060480  0.05069315     0.07000
C567        C  0.14074393  0.31358791  0.04901076    -0.02900
C568        C  0.11428955  0.32196433  0.06090048    -0.07400
C569        C  0.10177835  0.29750790  0.07432043     0.06100
C570        C  0.11847350  0.26471603  0.07655645    -0.02400
Br571      Br  0.10542159  0.22858982  0.09425532    -0.02100
H572        H  0.15775276  0.23123458  0.06599755     0.10100
H573        H  0.10267379  0.34756394  0.05899190     0.08100
Br574      Br  0.15349263  0.34712603  0.02972235    -0.02500
C575        C  0.36438252  0.26927853  0.07394501    -0.09200
C576        C  0.38298733  0.29860934  0.06773761     0.07000
C577        C  0.37427683  0.31537255  0.05034765    -0.02900
C578        C  0.34796512  0.30263853  0.03982260    -0.07400
C579        C  0.32964855  0.27357693  0.04604155     0.06100
C580        C  0.33788505  0.25670106  0.06323859    -0.02400
Br581      Br  0.31383707  0.21645567  0.07248054    -0.02100
H582        H  0.37030757  0.25596909  0.08715020     0.10100
H583        H  0.34145124  0.31575973  0.02661210     0.08100
Br584      Br  0.39620148  0.35565152  0.03935164    -0.02500
C585        C  0.13938102  0.20074040  0.95867001    -0.09200
C586        C  0.14950223  0.23566650  0.95616390     0.07000
C587        C  0.13042775  0.25848245  0.94455609    -0.02900
C588        C  0.10167900  0.24589707  0.93563017    -0.07400
C589        C  0.09148061  0.21085790  0.93843512     0.06100
C590        C  0.11054477  0.18851821  0.95029280    -0.02400
Br591      Br  0.09784872  0.14103121  0.95619153    -0.02100
H592        H  0.15329342  0.18327067  0.96799347     0.10100
H593        H  0.08794462  0.26309934  0.92610692     0.08100
Br594      Br  0.14298307  0.30655984  0.94045713    -0.02500
C595        C  0.35189602  0.18337058  0.93558023    -0.09200
C596        C  0.37853282  0.20596336  0.93080170     0.07000
C597        C  0.37742551  0.24083680  0.93752115    -0.02900
C598        C  0.34971036  0.25233752  0.94815695    -0.07400
C599        C  0.32302035  0.22958678  0.95237304     0.06100
C600        C  0.32446601  0.19481132  0.94599034    -0.02400
Br601      Br  0.29063865  0.16093068  0.95217830    -0.02100
H602        H  0.35230737  0.15599257  0.93159895     0.10100
H603        H  0.34942238  0.27879495  0.95372072     0.08100
Br604      Br  0.41294577  0.27352484  0.93331842    -0.02500
C605        C  0.13400188  0.50782751  0.05964971    -0.09200
C606        C  0.15779488  0.48219730  0.05477499     0.07000
C607        C  0.15575303  0.44837267  0.06301617    -0.02900
C608        C  0.12789991  0.43928219  0.07388906    -0.07400
C609        C  0.10274123  0.46408297  0.07761316     0.06100
C610        C  0.10695424  0.49920902  0.07146098    -0.02400
Br611      Br  0.07556831  0.53554754  0.07772249    -0.02100
H612        H  0.13604884  0.53428837  0.05385406     0.10100
H613        H  0.12535726  0.41236939  0.07897769     0.08100
Br614      Br  0.18985981  0.41357085  0.05935694    -0.02500
C615        C  0.32923635  0.45869269  0.06088146    -0.09200
C616        C  0.32854950  0.49250977  0.05272080     0.07000
C617        C  0.35443021  0.51615525  0.05656302    -0.02900
C618        C  0.38189194  0.50472019  0.06718673    -0.07400
C619        C  0.38367372  0.46993644  0.07409030     0.06100
C620        C  0.35641653  0.44734821  0.07156333    -0.02400
Br621      Br  0.35502616  0.40068799  0.08235872    -0.02100
H622        H  0.30911148  0.44056916  0.05828395     0.10100
H623        H  0.40259032  0.52238451  0.06918612     0.08100
Br624      Br  0.35362463  0.56359680  0.04689902    -0.02500
C625        C  0.12153301  0.03221153  0.96578453    -0.09200
C626        C  0.15022280  0.01471556  0.95896199     0.07000
C627        C  0.14929870  0.00064362  0.94051876    -0.02900
C628        C  0.12207895  0.00807099  0.92864711    -0.07400
C629        C  0.09444241  0.02729678  0.93528284     0.06100
C630        C  0.09359897  0.03749096  0.95430724    -0.02400
Br631      Br  0.05470967  0.05971467  0.96478367    -0.02100
H632        H  0.12090571  0.04203151  0.98012945     0.10100
H633        H  0.12301473  0.99988036  0.91400158     0.08100
Br634      Br  0.18396354  0.47043755  0.93109870    -0.02500
C635        C  0.37865320  0.06276636  0.94825703    -0.09200
C636        C  0.38563564  0.04014160  0.93310284     0.07000
C637        C  0.36277938  0.01308314  0.92935336    -0.02900
C638        C  0.33452683  0.00811297  0.94108088    -0.07400
C639        C  0.32788438  0.03048414  0.95642585     0.06100
C640        C  0.35032329  0.05817059  0.95981468    -0.02400
Br641      Br  0.34264861  0.09117459  0.97979361    -0.02100
H642        H  0.39482208  0.08492738  0.95075716     0.10100
H643        H  0.31773878  0.48665134  0.93824372     0.08100
Br644      Br  0.36804018  0.48399419  0.90752858    -0.02500
C645        C  0.18717765  0.01611301  0.69338985    -0.09200
C646        C  0.16617598  0.01921241  0.67762862     0.07000
C647        C  0.13984577  0.49522968  0.67567814    -0.02900
C648        C  0.13496563  0.46868238  0.68939580    -0.07400
C649        C  0.15595857  0.46584601  0.70515211     0.06100
C650        C  0.18226562  0.48972555  0.70704690    -0.02400
Br651      Br  0.21219665  0.98705449  0.72805621    -0.02100
H652        H  0.20781581  0.03400919  0.69500340     0.10100
H653        H  0.11440340  0.45062578  0.68798093     0.08100
Br654      Br  0.10890823  0.49897270  0.65518372    -0.02500
C655        C  0.18042819  0.23018765  0.69841144    -0.09200
C656        C  0.16315723  0.23124835  0.68118787     0.07000
C657        C  0.13918569  0.25779754  0.67805652    -0.02900
C658        C  0.13333856  0.28323245  0.69191434    -0.07400
C659        C  0.15129797  0.28266013  0.70892003     0.06100
C660        C  0.17477597  0.25563470  0.71217027    -0.02400
Br661      Br  0.20121314  0.25354945  0.73466554    -0.02100
H662        H  0.19941510  0.21034806  0.70093118     0.10100
H663        H  0.11508755  0.30381690  0.68933476     0.08100
Br664      Br  0.11375693  0.25998330  0.65516640    -0.02500
C665        C  0.31184009  0.02355788  0.69253464    -0.09200
C666        C  0.32368579  0.01963827  0.67385335     0.07000
C667        C  0.34445561  0.99072479  0.66959302    -0.02900
C668        C  0.35212332  0.46595328  0.68376326    -0.07400
C669        C  0.33934534  0.46936035  0.70223031     0.06100
C670        C  0.31941962  0.49880009  0.70664715    -0.02400
Br671      Br  0.30113238  0.50607705  0.73152949    -0.02100
H672        H  0.29585780  0.04556858  0.69617240     0.10100
H673        H  0.36804416  0.44375021  0.68036037     0.08100
Br674      Br  0.36418907  0.98436723  0.64502831    -0.02500
C675        C  0.30757870  0.23371106  0.69486273    -0.09200
C676        C  0.32393586  0.23367635  0.67720009     0.07000
C677        C  0.34677572  0.26065743  0.67283950    -0.02900
C678        C  0.35285408  0.28703679  0.68605779    -0.07400
C679        C  0.33639891  0.28701777  0.70368689     0.06100
C680        C  0.31366683  0.26000071  0.70803890    -0.02400
Br681      Br  0.29006519  0.25817984  0.73172950    -0.02100
H682        H  0.28936653  0.21369550  0.69832278     0.10100
H683        H  0.37071490  0.30746205  0.68267046     0.08100
Br684      Br  0.37104785  0.26187719  0.64931435    -0.02500
C685        C  0.12814948  0.48942802  0.32813679    -0.09200
C686        C  0.16168740  0.47950944  0.32981561     0.07000
C687        C  0.18574677  0.99691830  0.31853924    -0.02900
C688        C  0.17594814  0.02236188  0.30515835    -0.07400
C689        C  0.14233142  0.03137421  0.30299029     0.06100
C690        C  0.11837664  0.51531423  0.31489468    -0.02400
Br691      Br  0.07224393  0.52818192  0.31354367    -0.02100
H692        H  0.10950950  0.47681654  0.33702368     0.10100
H693        H  0.19461013  0.03514704  0.29635102     0.08100
Br694      Br  0.23234180  0.98762236  0.32123386    -0.02500
C695        C  0.18261112  0.24362327  0.31530880    -0.09200
C696        C  0.15833305  0.26290716  0.32515444     0.07000
C697        C  0.12450841  0.25736003  0.32132083    -0.02900
C698        C  0.11541590  0.23275425  0.30768936    -0.07400
C699        C  0.13980002  0.21344083  0.29788560     0.06100
C700        C  0.17362340  0.21916004  0.30168185    -0.02400
Br701      Br  0.20822365  0.19370675  0.28877209    -0.02100
H702        H  0.20863244  0.24730201  0.31845881     0.10100
H703        H  0.08932653  0.22808996  0.30501066     0.08100
Br704      Br  0.09013447  0.28157837  0.33499541    -0.02500
C705        C  0.31558624  0.47309036  0.30891977    -0.09200
C706        C  0.32897994  0.47131307  0.32723806     0.07000
C707        C  0.35463466  0.99473577  0.33195238    -0.02900
C708        C  0.36498794  0.02056773  0.31880309    -0.07400
C709        C  0.35004581  0.02358055  0.30091131     0.06100
C710        C  0.32542208  0.99918465  0.29594843    -0.02400
Br711      Br  0.30250077  0.50190215  0.27219409    -0.02100
H712        H  0.29618457  0.45507123  0.30488921     0.10100
H713        H  0.38443851  0.03870493  0.32262602     0.08100
Br714      Br  0.37727835  0.99157329  0.35574738    -0.02500
C715        C  0.35692109  0.24581544  0.32730339    -0.09200
C716        C  0.32773942  0.26471546  0.32308253     0.07000
C717        C  0.30866337  0.25530392  0.30724261    -0.02900
C718        C  0.31896626  0.22731232  0.29604408    -0.07400
C719        C  0.34805210  0.20853366  0.30027655     0.06100
C720        C  0.36740785  0.21804165  0.31586247    -0.02400
Br721      Br  0.40831318  0.19418387  0.32171663    -0.02100
H722        H  0.37141860  0.25253371  0.33961011     0.10100
H723        H  0.30415899  0.21998466  0.28395876     0.08100
Br724      Br  0.26749151  0.27791153  0.30057361    -0.02500
C725        C  0.10266680  0.20083656  0.57338790    -0.09200
C726        C  0.12903185  0.22391280  0.57642953     0.07000
C727        C  0.12636168  0.25914345  0.57013218    -0.02900
C728        C  0.09823710  0.27011228  0.55997970    -0.07400
C729        C  0.07356981  0.24582987  0.55509477     0.06100
C730        C  0.07537249  0.21120438  0.56248087    -0.02400
Br731      Br  0.04272094  0.17625312  0.55670140    -0.02100
H732        H  0.10406497  0.17412679  0.57886079     0.10100
H733        H  0.09712421  0.29675251  0.55432424     0.08100
Br734      Br  0.16228589  0.29173938  0.57263907    -0.02500
C735        C  0.38439208  0.22239614  0.54087643    -0.09200
C736        C  0.39971488  0.25325391  0.54683731     0.07000
C737        C  0.38608386  0.27139604  0.56237782    -0.02900
C738        C  0.35893541  0.25695165  0.57244543    -0.07400
C739        C  0.34395337  0.22535659  0.56666588     0.06100
C740        C  0.35635759  0.20902739  0.55005783    -0.02400
Br741      Br  0.33638530  0.16949308  0.53789071    -0.02100
H742        H  0.39402053  0.20890842  0.52851999     0.10100
H743        H  0.34925100  0.27087740  0.58460370     0.08100
Br744      Br  0.40255572  0.31652101  0.56959800    -0.02500
C745        C  0.08678877  0.29061890  0.44661723    -0.09200
C746        C  0.08422869  0.25826206  0.45626288     0.07000
C747        C  0.10782996  0.23151033  0.45261554    -0.02900
C748        C  0.13487335  0.23843875  0.44046547    -0.07400
C749        C  0.13839185  0.27167858  0.43179744     0.06100
C750        C  0.11343745  0.29738076  0.43438563    -0.02400
Br751      Br  0.11463953  0.34224741  0.42157209    -0.02100
H752        H  0.06832688  0.31104335  0.44899606     0.10100
H753        H  0.15398082  0.21852067  0.43855612     0.08100
Br754      Br  0.10471383  0.18594890  0.46449997    -0.02500
C755        C  0.41023042  0.29581555  0.44078653    -0.09200
C756        C  0.41243070  0.26448282  0.45134975     0.07000
C757        C  0.38890082  0.23773361  0.44861557    -0.02900
C758        C  0.36232929  0.24355091  0.43618634    -0.07400
C759        C  0.35882551  0.27601836  0.42667648     0.06100
C760        C  0.38354424  0.30185872  0.42864544    -0.02400
Br761      Br  0.38091045  0.34682422  0.41599235    -0.02100
H762        H  0.42830535  0.31644200  0.44284598     0.10100
H763        H  0.34315190  0.22378996  0.43505050     0.08100
Br764      Br  0.39093721  0.19422827  0.46270438    -0.02500
C765        C  0.08259999  0.05738287  0.54725838    -0.09200
C766        C  0.07638535  0.02137852  0.54820741     0.07000
C767        C  0.09734329  0.99934633  0.55902580    -0.02900
C768        C  0.12435747  0.01382332  0.56871246    -0.07400
C769        C  0.13163423  0.04999826  0.56709678     0.06100
C770        C  0.11011461  0.07173928  0.55605590    -0.02400
Br771      Br  0.11556900  0.12109588  0.55128928    -0.02100
H772        H  0.06672795  0.07423804  0.53865248     0.10100
H773        H  0.14045803  0.49653066  0.57687804     0.08100
Br774      Br  0.09067609  0.44944574  0.56006284    -0.02500
C775        C  0.40237446  0.05732375  0.55571745    -0.09200
C776        C  0.40382520  0.02288693  0.54889624     0.07000
C777        C  0.37777346  0.99939009  0.55323696    -0.02900
C778        C  0.34957592  0.01138224  0.56306757    -0.07400
C779        C  0.34719843  0.04659309  0.56871890     0.06100
C780        C  0.37453068  0.06914750  0.56578126    -0.02400
Br781      Br  0.37579126  0.11581656  0.57589088    -0.02100
H782        H  0.42262064  0.07531773  0.55275551     0.10100
H783        H  0.32897177  0.99362835  0.56559534     0.08100
Br784      Br  0.37953577  0.45111556  0.54554440    -0.02500
C785        C  0.11375284  0.46056613  0.42947696    -0.09200
C786        C  0.13688709  0.43799299  0.43841187     0.07000
C787        C  0.13028480  0.42663337  0.45728167    -0.02900
C788        C  0.10017047  0.43504838  0.46594240    -0.07400
C789        C  0.07749325  0.45812581  0.45732351     0.06100
C790        C  0.08461334  0.47142306  0.43898373    -0.02400
Br791      Br  0.05674842  0.00620993  0.42704002    -0.02100
H792        H  0.11862138  0.97030155  0.41523767     0.10100
H793        H  0.09559439  0.42590413  0.48034522     0.08100
Br794      Br  0.16254160  0.40507841  0.47382934    -0.02500
C795        C  0.37484962  0.45484717  0.46563884    -0.09200
C796        C  0.40175305  0.47199625  0.45685273     0.07000
C797        C  0.40007796  0.47984788  0.43723728    -0.02900
C798        C  0.37336312  0.46723997  0.42658734    -0.07400
C799        C  0.34741986  0.44848244  0.43544008     0.06100
C800        C  0.34735393  0.44452811  0.45533544    -0.02400
Br801      Br  0.30946481  0.42823635  0.46967937    -0.02100
H802        H  0.37497071  0.44989515  0.48079864     0.10100
H803        H  0.37313341  0.47157978  0.41138173     0.08100
Br804      Br  0.43264381  0.50868428  0.42458065    -0.02500
N805        N  0.04038925  0.48875289  0.50259582    -0.36600
N806        N  0.49035906  0.98082562  0.47344937    -0.57200
N807        N  0.44054377  0.99589054  0.50232196    -0.36600
N808        N  0.49050699  0.50491985  0.53088281    -0.57200
C809        C  0.05884077  0.98834271  0.48646560     0.27000
C810        C  0.05956452  0.50289438  0.51620172     0.27000
C811        C  0.42344167  0.99989342  0.48597676     0.27000
C812        C  0.42294933  0.51266023  0.51595543     0.27000
C813        C  0.01646652  0.96536161  0.46476038     0.35600
C814        C  0.46279653  0.96948910  0.46467838     0.35600
C815        C  0.01733825  0.50650683  0.54213250     0.35600
C816        C  0.46352872  0.50867059  0.54218695     0.35600
C817        C  0.08998308  0.00225800  0.48985967    -0.21900
C818        C  0.09053484  0.51122226  0.50859403    -0.21900
C819        C  0.39503249  0.01988616  0.48920124    -0.21900
C820        C  0.39460159  0.52776203  0.50814821    -0.21900
C821        C  0.00561001  0.94402864  0.45031527    -0.23000
C822        C  0.47141857  0.94634145  0.45037270    -0.23000
C823        C  0.00742453  0.51122340  0.56079887    -0.23000
C824        C  0.47320630  0.51208538  0.56088685    -0.23000
C825        C  0.04986734  0.97176300  0.46942170    -0.18300
C826        C  0.05048457  0.50767029  0.53545242    -0.18300
C827        C  0.43081745  0.51316534  0.53545017    -0.18300
C828        C  0.43042602  0.98174975  0.46899925    -0.18300
H829        H  0.11051805  0.00488003  0.47993604     0.14600
H830        H  0.11163116  0.52228072  0.51579817     0.14600
H831        H  0.37603066  0.02703169  0.47904470     0.14600
H832        H  0.37538856  0.54261233  0.51539569     0.14600
H833        H  0.02071958  0.92842235  0.44078624     0.12900
H834        H  0.45490897  0.93300000  0.44082731     0.12900
H835        H  0.02321158  0.51449484  0.57299975     0.12900
H836        H  0.45740280  0.51664668  0.57311238     0.12900
H837        H  0.01768429  0.47624763  0.50465590     0.26200
H838        H  0.46036576  0.97859368  0.50455252     0.26100
N839        N  0.44304258  0.76403320  0.50154350    -0.36600
N840        N  0.98987040  0.76541157  0.53290708    -0.57200
N841        N  0.04380214  0.75529966  0.50497198    -0.36600
N842        N  0.99641683  0.75769799  0.47392337    -0.57200
C843        C  0.42284031  0.77307128  0.51610361     0.27000
C844        C  0.42608776  0.77026655  0.48535115     0.27000
C845        C  0.06185243  0.75697175  0.52103656     0.27000
C846        C  0.06524800  0.75635946  0.49003895     0.27000
C847        C  0.46127202  0.76260814  0.54305541     0.35600
C848        C  0.01503660  0.75832249  0.54503058     0.35600
C849        C  0.47063431  0.75533165  0.46196095     0.35600
C850        C  0.02426183  0.75207865  0.46359476     0.35600
C851        C  0.39264590  0.78509273  0.50914149    -0.21900
C852        C  0.39473299  0.78353499  0.48973282    -0.21900
C853        C  0.09541800  0.75826682  0.51614721    -0.21900
C854        C  0.09745486  0.75860148  0.49673371    -0.21900
C855        C  0.46832822  0.75499528  0.56184348    -0.23000
C856        C  0.00230122  0.75284238  0.56316447    -0.23000
C857        C  0.48209803  0.74789257  0.44387050    -0.23000
C858        C  0.01614362  0.74596759  0.44486050    -0.23000
C859        C  0.42887022  0.76564571  0.53543859    -0.18300
C860        C  0.43714434  0.76219174  0.46678838    -0.18300
C861        C  0.05703237  0.75417316  0.47052571    -0.18300
C862        C  0.04922526  0.75502291  0.53996330    -0.18300
H863        H  0.37101912  0.79310934  0.51728650     0.14600
H864        H  0.37501312  0.79047118  0.47999108     0.14600
H865        H  0.11667595  0.75859512  0.52540159     0.14600
H866        H  0.12031144  0.75946439  0.48854734     0.14600
H867        H  0.45087019  0.75064789  0.57336753     0.12900
H868        H  0.01600708  0.74681850  0.57595231     0.12900
H869        H  0.46751617  0.74470749  0.43118457     0.12900
H870        H  0.03300644  0.74097036  0.43315088     0.12900
H871        H  0.46477787  0.74919086  0.50276750     0.26200
H872        H  0.01843768  0.75087405  0.50439577     0.26100
C873        C  0.32233857  0.93046109  0.42398565     0.42500
N874        N  0.28059069  0.92202021  0.40593552     0.01300
C875        C  0.18459813  0.77064919  0.40488002    -0.06500
H876        H  0.31689696  0.75245046  0.39208108     0.06800
C877        C  0.30036710  0.82454932  0.33232738    -0.06900
Co878      Co  0.24631275  0.85481235  0.41674221     0.74200
N879        N  0.28283709  0.79450736  0.39980808    -0.26100
Co880      Co  0.24461144  0.79744183  0.37971121     0.74100
C881        C  0.31550635  0.79032098  0.33688148     0.42600
N882        N  0.27718414  0.90822213  0.34957283     0.01000
N883        N  0.27902512  0.80310990  0.35806376     0.01100
N884        N  0.18793775  0.80926202  0.42890394    -0.46900
H885        H  0.31430971  0.87780457  0.43964033     0.06800
N886        N  0.28293950  0.81709427  0.41382445     0.01300
N887        N  0.20698802  0.80193317  0.35958384     0.01100
C888        C  0.16905910  0.78785368  0.33964152     0.42700
N889        N  0.27783263  0.93045916  0.36378732    -0.25500
C890        C  0.18499114  0.89313023  0.43179013    -0.06400
N891        N  0.30458383  0.94483056  0.40958003    -0.46600
N892        N  0.18614178  0.77664779  0.35501213    -0.46900
C893        C  0.16690008  0.92556255  0.42796706     0.42500
N894        N  0.21098424  0.81535855  0.41587358     0.01300
N895        N  0.20548416  0.93040515  0.36556912    -0.25500
N896        N  0.28173454  0.89398595  0.41712808    -0.26000
N897        N  0.20498735  0.90883138  0.35104526     0.01000
H898        H  0.18389577  0.98165187  0.36995832     0.06900
H899        H  0.17827001  0.83823521  0.32204769     0.06900
N900        N  0.20977707  0.79323155  0.40167471    -0.26100
N901        N  0.27784505  0.83003091  0.34609564    -0.25700
N902        N  0.20738290  0.92059786  0.40796203     0.01300
C903        C  0.32646125  0.78583480  0.41860188     0.42700
C904        C  0.30069516  0.95520073  0.35979005    -0.06900
N905        N  0.20538546  0.82926118  0.34785376    -0.25700
H906        H  0.30294875  0.84037895  0.31955174     0.06900
N907        N  0.30837354  0.81280495  0.42532696    -0.46900
H908        H  0.30430052  0.97891498  0.36782579     0.06900
C909        C  0.17114837  0.95098668  0.34322656     0.42600
C910        C  0.30755165  0.89666691  0.42871020    -0.06400
Co911      Co  0.24272520  0.92680927  0.38592740     0.73800
N912        N  0.29830958  0.91670994  0.33580881    -0.46600
C913        C  0.17033723  0.78150609  0.42304964     0.42800
N914        N  0.18176648  0.94120240  0.41268278    -0.46600
Co915      Co  0.24119716  0.86904432  0.34829857     0.73900
C916        C  0.18214193  0.82278805  0.33483599    -0.07000
C917        C  0.30967155  0.77324407  0.40162978    -0.06500
N918        N  0.20957164  0.89257837  0.41911739    -0.26000
N919        N  0.30104358  0.77895376  0.35308282    -0.46800
H920        H  0.17689699  0.74993339  0.39553053     0.06800
C921        C  0.18479286  0.95751093  0.36199198    -0.06900
Cl922      Cl  0.24356146  0.86206095  0.38263021    -0.49900
C923        C  0.31455916  0.94595153  0.34116128     0.42600
H924        H  0.17978635  0.87215332  0.44177581     0.06800
N925        N  0.18529571  0.92054020  0.33732703    -0.46600
C926        C  0.31544148  0.56019497  0.57620894     0.42500
N927        N  0.27461743  0.57004031  0.59506027     0.01300
C928        C  0.17832203  0.72123339  0.60082572    -0.06500
H929        H  0.30825578  0.74330956  0.60483809     0.06800
C930        C  0.30166871  0.67215491  0.66772328    -0.06900
Co931      Co  0.23922603  0.63712802  0.58501155     0.74200
N932        N  0.27700778  0.69831200  0.59990962    -0.26100
Co933      Co  0.24200956  0.69604391  0.62194605     0.74100
C934        C  0.31465798  0.70726539  0.66301293     0.42600
N935        N  0.27857768  0.58637159  0.65083209     0.01000
N936        N  0.27930232  0.69164217  0.64197118     0.01100
N937        N  0.17668502  0.68161665  0.57712523    -0.46900
H938        H  0.30476645  0.61050751  0.55882472     0.06800
N939        N  0.27580071  0.67549987  0.58602721     0.01300
N940        N  0.20718226  0.69240359  0.64402057     0.01100
C941        C  0.17253022  0.70634684  0.66619177     0.42700
N942        N  0.27656058  0.56305171  0.63720444    -0.25500
C943        C  0.18018802  0.59547614  0.57098386    -0.06400
N944        N  0.29884445  0.54714568  0.59142971    -0.46600
N945        N  0.18672353  0.71762295  0.64977099    -0.46900
C946        C  0.16182719  0.56404488  0.57643125     0.42500
N947        N  0.20300028  0.67645413  0.58800483     0.01300
N948        N  0.20456299  0.56502090  0.63885201    -0.25500
N949        N  0.27456293  0.59716630  0.58315563    -0.26000
N950        N  0.20660821  0.58714770  0.65304966     0.01000
H951        H  0.18133442  0.51450126  0.63637547     0.06900
H952        H  0.18436044  0.65545637  0.68284985     0.06900
N953        N  0.20435519  0.69905769  0.60202270    -0.26100
N954        N  0.27982311  0.66490833  0.65407476    -0.25700
N955        N  0.20155128  0.57223420  0.59625202     0.01300
C956        C  0.31589490  0.70996923  0.57790927     0.42700
C957        C  0.29751782  0.53638570  0.64121643    -0.06900
N958        N  0.20761646  0.66521962  0.65580718    -0.25700
H959        H  0.30417736  0.65736468  0.68084469     0.06900
N960        N  0.29840966  0.68155681  0.57273165    -0.46900
H961        H  0.29770908  0.51136722  0.63407082     0.06900
C962        C  0.17307400  0.54689176  0.66326210     0.42600
C963        C  0.29916735  0.59296216  0.57055542    -0.06400
Co964      Co  0.23913150  0.56673431  0.61677745     0.73800
N965        N  0.29984376  0.57694204  0.66414780    -0.46600
C966        C  0.16012336  0.70951801  0.58431851     0.42800
N967        N  0.17701244  0.55033985  0.59206680    -0.46600
Co968      Co  0.24324747  0.62589670  0.65364909     0.73900
C969        C  0.18629078  0.67128568  0.67003434    -0.07000
C970        C  0.30169427  0.72122221  0.59612911    -0.06500
N971        N  0.20317623  0.59899602  0.58422673    -0.26000
N972        N  0.29954585  0.71729991  0.64678866    -0.46800
H973        H  0.17253767  0.74225011  0.61053664     0.06800
C974        C  0.18372329  0.53901671  0.64387100    -0.06900
Cl975      Cl  0.24093955  0.63139042  0.61935495    -0.49900
C976        C  0.31300105  0.54553478  0.65927009     0.42600
H977        H  0.17974795  0.61087359  0.55804239     0.06800
N978        N  0.18841358  0.57715633  0.66783285    -0.46600
N979        N  0.29167935  0.01231183  0.00468486    -0.36600
N980        N  0.24235328  0.99909822  0.03413921    -0.57200
N981        N  0.19107627  0.00197223  0.00591238    -0.36600
N982        N  0.24039054  0.51327943  0.97581089    -0.57200
C983        C  0.31108463  0.00096758  0.01917834     0.27000
C984        C  0.31010134  0.50986044  0.98858699     0.27000
C985        C  0.17467064  0.98704035  0.02078566     0.27000
C986        C  0.17338616  0.49521562  0.99015239     0.27000
C987        C  0.26914293  0.00370190  0.04517116     0.35600
C988        C  0.21563935  0.99904258  0.04582322     0.35600
C989        C  0.26627482  0.52632929  0.96548526     0.35600
C990        C  0.21206091  0.52156407  0.96637286     0.35600
C991        C  0.34209206  0.99120030  0.01217295    -0.21900
C992        C  0.34150498  0.99692835  0.99291721    -0.21900
C993        C  0.14646754  0.97022499  0.01438193    -0.21900
C994        C  0.14572811  0.47525610  0.99503792    -0.21900
C995        C  0.25945198  0.00672215  0.06398439    -0.23000
C996        C  0.22539101  0.00384693  0.06439340    -0.23000
C997        C  0.25438654  0.54289150  0.94928130    -0.23000
C998        C  0.22006772  0.54029598  0.94995589    -0.23000
C999        C  0.30224813  0.00089908  0.03867244    -0.18300
C1000       C  0.30038774  0.52204754  0.97037860    -0.18300
C1001       C  0.17961375  0.51002805  0.97192862    -0.18300
C1002       C  0.18331692  0.99041925  0.04008092    -0.18300
H1003       H  0.36319816  0.98140969  0.02012733     0.14600
H1004       H  0.36206435  0.49250956  0.98322472     0.14600
H1005       H  0.12806434  0.95624501  0.02279956     0.14600
H1006       H  0.12654825  0.46600856  0.98567522     0.14600
H1007       H  0.27535463  0.00963104  0.07616415     0.12900
H1008       H  0.20974955  0.00393866  0.07695052     0.12900
H1009       H  0.26889980  0.55557978  0.93819337     0.12900
H1010       H  0.20304371  0.55047589  0.93938898     0.12900
H1011       H  0.26867642  0.02482398  0.00594374     0.26200
H1012       H  0.21061042  0.01974821  0.00673774     0.26100
N1013       N  0.18867921  0.76073431  0.00233632    -0.36600
N1014       N  0.23733406  0.74829101  0.97245786    -0.57200
N1015       N  0.28971501  0.75322630  0.00048540    -0.36600
N1016       N  0.24112034  0.76171620  0.03088035    -0.57200
C1017       C  0.16797290  0.75204545  0.98812380     0.27000
C1018       C  0.17046977  0.76045372  0.01855271     0.27000
C1019       C  0.30723142  0.74000198  0.98573545     0.27000
C1020       C  0.30891162  0.74941195  0.01605177     0.27000
C1021       C  0.20972570  0.74865058  0.96160413     0.35600
C1022       C  0.26381909  0.74534060  0.96062278     0.35600
C1023       C  0.21536071  0.77301461  0.04159306     0.35600
C1024       C  0.26886037  0.77013129  0.04040989     0.35600
C1025       C  0.13607008  0.74732824  0.99545427    -0.21900
C1026       C  0.13771222  0.75248165  0.01458047    -0.21900
C1027       C  0.33784068  0.72762519  0.99211803    -0.21900
C1028       C  0.33896207  0.73386576  0.01120184    -0.21900
C1029       C  0.21871150  0.74586259  0.94267442    -0.23000
C1030       C  0.25296698  0.74407709  0.94203486    -0.23000
C1031       C  0.22666660  0.78761458  0.05822604    -0.23000
C1032       C  0.26068823  0.78607830  0.05739870    -0.23000
C1033       C  0.17659524  0.74805473  0.96869519    -0.18300
C1034       C  0.18170873  0.77011319  0.03666016    -0.18300
C1035       C  0.30142854  0.76269965  0.03416552    -0.18300
C1036       C  0.29720813  0.74001449  0.96652312    -0.18300
H1037       H  0.11365543  0.74098570  0.98786145     0.14600
H1038       H  0.11697665  0.75092718  0.02443043     0.14600
H1039       H  0.35760383  0.71564967  0.98387292     0.14600
H1040       H  0.35964869  0.72793817  0.02046615     0.14600
H1041       H  0.20228532  0.74449110  0.93063013     0.12900
H1042       H  0.26807066  0.74082556  0.92940440     0.12900
H1043       H  0.21195894  0.79873978  0.06961302     0.12900
H1044       H  0.27742667  0.79563579  0.06808231     0.12900
H1045       H  0.21289808  0.76953571  0.00091010     0.26200
H1046       H  0.26803668  0.76811151  0.99961409     0.26100
C1047       C  0.41111761  0.55128944  0.91881844     0.42500
N1048       N  0.43165906  0.58222234  0.89595185     0.01300
C1049       C  0.08185599  0.58151032  0.84714906    -0.06500
H1050       H  0.10334659  0.59508532  0.91469163     0.06800
C1051       C  0.03447944  0.70912794  0.91847376    -0.06900
Co1052     Co  0.49812308  0.55974966  0.88081006     0.74200
N1053       N  0.05601919  0.58702456  0.90144729    -0.26100
Co1054     Co  0.05546448  0.62774496  0.88147636     0.74100
C1055       C  0.06588959  0.69499950  0.92635928     0.42600
N1056       N  0.44859183  0.68311719  0.90049837     0.01000
N1057       N  0.05059694  0.66323023  0.90317827     0.01100
N1058       N  0.04484269  0.53736559  0.84929356    -0.46900
H1059       H  0.45791738  0.51512761  0.91944051     0.06800
N1060       N  0.03395475  0.56136025  0.90235489     0.01300
N1061       N  0.05491378  0.67132157  0.86233116     0.01100
C1062       C  0.06820580  0.71637551  0.84471722     0.42700
N1063       N  0.42775778  0.65776997  0.89630448    -0.25500
C1064       C  0.46535677  0.53477679  0.84459128    -0.06400
N1065       N  0.40538238  0.57861724  0.90713251    -0.46600
N1066       N  0.07906570  0.68428055  0.85120354    -0.46900
C1067       C  0.43780846  0.54515112  0.83264418     0.42500
N1068       N  0.03756589  0.56247044  0.86139403     0.01300
N1069       N  0.43824284  0.66325150  0.85582572    -0.25500
N1070       N  0.45569126  0.55911614  0.89943093    -0.26000
N1071       N  0.45853088  0.68945194  0.85952857     0.01000
H1072       H  0.40042242  0.65711152  0.83443571     0.06900
H1073       H  0.01754346  0.74258964  0.85067946     0.06900
N1074       N  0.05857098  0.58904365  0.86043312    -0.26100
N1075       N  0.02635967  0.68682318  0.90443893    -0.25700
N1076       N  0.44235858  0.58240415  0.85508218     0.01300
C1077       C  0.07278570  0.54599051  0.92159707     0.42700
C1078       C  0.40027295  0.66073293  0.90662228    -0.06900
N1079       N  0.02972692  0.69355132  0.86364364    -0.25700
H1080       H  0.02173824  0.73353231  0.92167118     0.06900
N1081       N  0.04343834  0.53553566  0.91416389    -0.46900
H1082       H  0.37829688  0.64500667  0.90463951     0.06900
C1083       C  0.43354918  0.70668240  0.83427962     0.42600
C1084       C  0.44471106  0.53772925  0.91373070    -0.06400
Co1085     Co  0.43467863  0.62135968  0.87536579     0.73800
N1086       N  0.43559818  0.70475501  0.91341613    -0.46600
C1087       C  0.07252395  0.54668930  0.83962915     0.42800
N1088       N  0.42406201  0.57470907  0.84008231    -0.46600
Co1089     Co  0.49065502  0.68881998  0.88251216     0.73900
C1090       C  0.03515684  0.72142124  0.85255848    -0.07000
C1091       C  0.08087183  0.57984935  0.91331949    -0.06500
N1092       N  0.46596453  0.55880771  0.85814804    -0.26000
N1093       N  0.07393101  0.66699830  0.91592620    -0.46800
H1094       H  0.10316852  0.59776413  0.84409699     0.06800
C1095       C  0.42054020  0.67216481  0.84030435    -0.06900
Cl1096     Cl  0.49478914  0.62440045  0.88014266    -0.49900
C1097       C  0.40514542  0.69142196  0.91818624     0.42600
H1098       H  0.48099375  0.51153176  0.84393633     0.06800
N1099       N  0.45653368  0.71556310  0.84705198    -0.46600
N1100       N  0.14517099  0.87539053  0.72645327    -0.36600
N1101       N  0.13951998  0.93136393  0.75407929    -0.57200
N1102       N  0.13049356  0.87856888  0.78341433    -0.36600
N1103       N  0.13877967  0.82236105  0.75655916    -0.57200
C1104       C  0.15682123  0.90321893  0.71633773     0.27000
C1105       C  0.15569490  0.84592634  0.71762871     0.27000
C1106       C  0.13414152  0.90799783  0.79383183     0.27000
C1107       C  0.13474428  0.85037060  0.79513890     0.27000
C1108       C  0.13727124  0.95028476  0.73780572     0.35600
C1109       C  0.12798172  0.95236168  0.76801123     0.35600
C1110       C  0.13364124  0.80286375  0.74098938     0.35600
C1111       C  0.12554398  0.80416018  0.77134407     0.35600
C1112       C  0.17504287  0.89135077  0.70089185    -0.21900
C1113       C  0.17438412  0.85508289  0.70172439    -0.21900
C1114       C  0.14128780  0.89850725  0.81238377    -0.21900
C1115       C  0.14204683  0.86215748  0.81317463    -0.21900
C1116       C  0.12477003  0.98364582  0.74141463    -0.23000
C1117       C  0.11868894  0.98491045  0.76057470    -0.23000
C1118       C  0.11729762  0.77202192  0.74582945    -0.23000
C1119       C  0.11169670  0.77306644  0.76505364    -0.23000
C1120       C  0.14933557  0.93885389  0.72007822    -0.18300
C1121       C  0.14636849  0.81131156  0.72283271    -0.18300
C1122       C  0.12729802  0.81490356  0.79045499    -0.18300
C1123       C  0.12703159  0.94277564  0.78741524    -0.18300
H1124       H  0.18715631  0.90717089  0.69002752     0.14600
H1125       H  0.18587010  0.83749573  0.69160916     0.14600
H1126       H  0.14456733  0.91597483  0.82421675     0.14600
H1127       H  0.14593613  0.84621515  0.82579724     0.14600
H1128       H  0.12074219  0.50491300  0.73130692     0.12900
H1129       H  0.10884828  0.50734620  0.76813306     0.12900
H1130       H  0.11026504  0.75100224  0.73647955     0.12900
H1131       H  0.09913014  0.75302901  0.77340429     0.12900
H1132       H  0.12773856  0.87642027  0.73741878     0.26200
H1133       H  0.12026417  0.87786037  0.76993498     0.26100
N1134       N  0.36762485  0.93173768  0.74888491    -0.36600
N1135       N  0.34871622  0.87806192  0.72220355    -0.57200
N1136       N  0.36376779  0.82410063  0.75021190    -0.36600
N1137       N  0.38478287  0.87778386  0.77645812    -0.57200
C1138       C  0.36603952  0.95062491  0.73255074     0.27000
C1139       C  0.38562218  0.95063991  0.76120125     0.27000
C1140       C  0.36135863  0.80455388  0.73438192     0.27000
C1141       C  0.37980083  0.80415882  0.76330454     0.27000
C1142       C  0.33630558  0.90688707  0.71330105     0.35600
C1143       C  0.33545608  0.84991498  0.71360122     0.35600
C1144       C  0.38806463  0.90648197  0.78741858     0.35600
C1145       C  0.38585136  0.84941593  0.78820583     0.35600
C1146       C  0.38331918  0.98186221  0.73446417    -0.21900
C1147       C  0.39547833  0.98200224  0.75262130    -0.21900
C1148       C  0.37579081  0.77174829  0.73751452    -0.21900
C1149       C  0.38728187  0.77143113  0.75580246    -0.21900
C1150       C  0.31479411  0.89701769  0.69906943    -0.23000
C1151       C  0.31442165  0.86082583  0.69919112    -0.23000
C1152       C  0.39138567  0.89631557  0.80624763    -0.23000
C1153       C  0.38996688  0.86010535  0.80674586    -0.23000
C1154       C  0.34696085  0.94162361  0.71661986    -0.18300
C1155       C  0.39133722  0.94130083  0.78033838    -0.18300
C1156       C  0.38636536  0.81406016  0.78214130    -0.18300
C1157       C  0.34428243  0.81464079  0.71771239    -0.18300
H1158       H  0.38616013  0.50277088  0.72402543     0.14600
H1159       H  0.40960135  0.50301895  0.75884698     0.14600
H1160       H  0.37739249  0.75005160  0.72774420     0.14600
H1161       H  0.39957236  0.74947397  0.76280554     0.14600
H1162       H  0.30137583  0.91407153  0.68934037     0.12900
H1163       H  0.30060362  0.84442444  0.68964231     0.12900
H1164       H  0.39521084  0.91315639  0.81828687     0.12900
H1165       H  0.39241757  0.84350359  0.81924804     0.12900
H1166       H  0.35369665  0.90945677  0.75218297     0.26200
H1167       H  0.35188921  0.84801939  0.75267547     0.26100
N1168       N  0.09926998  0.61699295  0.22567700    -0.36600
N1169       N  0.10941056  0.67327949  0.25274428    -0.57200
N1170       N  0.12900654  0.62120831  0.28110244    -0.36600
N1171       N  0.11573109  0.56491039  0.25491459    -0.57200
C1172       C  0.08451931  0.64434190  0.21645160     0.27000
C1173       C  0.08927528  0.58706618  0.21726768     0.27000
C1174       C  0.12810345  0.65063491  0.29168211     0.27000
C1175       C  0.12954286  0.59329359  0.29322602     0.27000
C1176       C  0.10452575  0.69280348  0.23686289     0.35600
C1177       C  0.12253322  0.69510603  0.26565176     0.35600
C1178       C  0.11422023  0.54341334  0.23983105     0.35600
C1179       C  0.12872702  0.54556165  0.26931992     0.35600
C1180       C  0.06526310  0.63167429  0.20184172    -0.21900
C1181       C  0.06829858  0.59554921  0.20233342    -0.21900
C1182       C  0.12834339  0.64137309  0.31075291    -0.21900
C1183       C  0.12921387  0.60519391  0.31172827    -0.21900
C1184       C  0.11421902  0.72729762  0.23977060    -0.23000
C1185       C  0.12570719  0.72872849  0.25801823    -0.23000
C1186       C  0.12612976  0.51019889  0.24470232    -0.23000
C1187       C  0.13516421  0.51151223  0.26340132    -0.23000
C1188       C  0.08939825  0.68047828  0.22020892    -0.18300
C1189       C  0.09952979  0.55238927  0.22226025    -0.18300
C1190       C  0.13294317  0.55756445  0.28804980    -0.18300
C1191       C  0.12972266  0.68557647  0.28459417    -0.18300
H1192       H  0.05064139  0.64688240  0.19180753     0.14600
H1193       H  0.05637859  0.57758349  0.19276739     0.13400
H1194       H  0.12840996  0.65887435  0.32273917     0.14600
H1195       H  0.13015387  0.58949309  0.32462248     0.14600
H1196       H  0.11292322  0.74920238  0.22982869     0.12900
H1197       H  0.13492224  0.75194327  0.26494942     0.12900
H1198       H  0.12758323  0.98721265  0.23581254     0.12900
H1199       H  0.14497617  0.98974610  0.27172981     0.12900
H1200       H  0.11778441  0.61877715  0.23578267     0.26200
H1201       H  0.13338389  0.62047001  0.26661351     0.26100
N1202       N  0.37198004  0.56531557  0.25439120    -0.36600
N1203       N  0.38183780  0.62045539  0.22563964    -0.57200
N1204       N  0.37041159  0.67219537  0.25369198    -0.36600
N1205       N  0.36280809  0.61670221  0.28309494    -0.57200
C1206       C  0.38601242  0.54713177  0.24010520     0.27000
C1207       C  0.37451905  0.54510272  0.27023167     0.27000
C1208       C  0.38316800  0.69266802  0.23959440     0.27000
C1209       C  0.37232205  0.69060587  0.26983196     0.27000
C1210       C  0.37940843  0.59209691  0.21449362     0.35600
C1211       C  0.37924791  0.64903025  0.21415136     0.35600
C1212       C  0.35161780  0.58803209  0.29270105     0.35600
C1213       C  0.35106232  0.64501457  0.29241518     0.35600
C1214       C  0.39808625  0.51511697  0.24696479    -0.21900
C1215       C  0.39061622  0.51376797  0.26603680    -0.21900
C1216       C  0.39324032  0.72454706  0.24691334    -0.21900
C1217       C  0.38616238  0.72333591  0.26600985    -0.21900
C1218       C  0.37514270  0.60262564  0.19575824    -0.23000
C1219       C  0.37500284  0.63883645  0.19554997    -0.23000
C1220       C  0.33303394  0.59814326  0.30834256    -0.23000
C1221       C  0.33276789  0.63437093  0.30819743    -0.23000
C1222       C  0.38477612  0.55716069  0.22081094    -0.18300
C1223       C  0.35934721  0.55301567  0.28775492    -0.18300
C1224       C  0.35828634  0.68023405  0.28737828    -0.18300
C1225       C  0.38421961  0.68384377  0.22019878    -0.18300
H1226       H  0.40996690  0.99438034  0.23892854     0.14600
H1227       H  0.39561790  0.99190934  0.27561278     0.14600
H1228       H  0.40408207  0.74660166  0.23927667     0.14600
H1229       H  0.39022392  0.74437075  0.27592174     0.14600
H1230       H  0.37323515  0.58596839  0.18348556     0.12900
H1231       H  0.37293297  0.65569120  0.18312168     0.12900
H1232       H  0.32098993  0.58125436  0.31875101     0.12900
H1233       H  0.32057864  0.65097642  0.31852908     0.12900
H1234       H  0.35716351  0.58777060  0.25280980     0.26200
H1235       H  0.35710659  0.64890803  0.25216235     0.26100
C1236       C  0.41542889  0.95600136  0.08136440     0.42500
N1237       N  0.45498661  0.94256142  0.10033250     0.01300
C1238       C  0.05193753  0.79213762  0.10019068    -0.06500
H1239       H  0.41768376  0.77196376  0.10461243     0.06800
C1240       C  0.42714468  0.82686019  0.16970288    -0.06900
Co1241     Co  0.49091401  0.87779044  0.08795652     0.74200
N1242       N  0.45182653  0.81506725  0.10055077    -0.26100
Co1243     Co  0.48664724  0.81162092  0.12237780     0.74100
C1244       C  0.41530535  0.79209308  0.16436034     0.42600
N1245       N  0.45004870  0.91524490  0.15564698     0.01000
N1246       N  0.44922555  0.81181568  0.14297431     0.01100
N1247       N  0.05221003  0.83555233  0.07810040    -0.46900
H1248       H  0.42744920  0.90932108  0.06214044     0.06800
N1249       N  0.45382629  0.84036584  0.08763095     0.01300
N1250       N  0.02077728  0.80992797  0.14434281     0.01100
C1251       C  0.05228507  0.78917265  0.16633491     0.42700
N1252       N  0.45131826  0.93961362  0.14219381    -0.25500
C1253       C  0.05398222  0.92002470  0.07755849    -0.06400
N1254       N  0.43077441  0.96595686  0.09740683    -0.46600
N1255       N  0.03943603  0.78244579  0.14914563    -0.46900
C1256       C  0.07060513  0.95086033  0.08474453     0.42500
N1257       N  0.52589182  0.83785991  0.08923555     0.01300
N1258       N  0.02382731  0.93795758  0.14449887    -0.25500
N1259       N  0.45602036  0.91806313  0.08728269    -0.26000
N1260       N  0.02198393  0.91280790  0.15753829     0.01000
H1261       H  0.05072443  0.98680004  0.14329054     0.06900
H1262       H  0.04012894  0.83590901  0.18562001     0.06900
N1263       N  0.52487881  0.81276215  0.10225850    -0.26100
N1264       N  0.44824601  0.83666662  0.15585603    -0.25700
N1265       N  0.52791952  0.94005921  0.10210913     0.01300
C1266       C  0.41113157  0.81088218  0.07936651     0.42700
C1267       C  0.42857820  0.96438533  0.14595822    -0.06900
N1268       N  0.02008892  0.83429160  0.15749377    -0.25700
H1269       H  0.42554932  0.83908196  0.18344679     0.06900
N1270       N  0.43019790  0.83873156  0.07483234    -0.46900
H1271       H  0.42698714  0.98966324  0.13876099     0.06900
C1272       C  0.05831655  0.94846091  0.16841179     0.42600
C1273       C  0.43227228  0.92460386  0.07458804    -0.06400
Co1274     Co  0.48958533  0.94096907  0.12231788     0.73800
N1275       N  0.42836004  0.92306526  0.16914435    -0.46600
C1276       C  0.07020091  0.80748217  0.08396680     0.42800
N1277       N  0.05326835  0.96214085  0.10005098    -0.46600
Co1278     Co  0.48504873  0.87485783  0.15688299     0.73900
C1279       C  0.03934071  0.82363946  0.17188037    -0.07000
C1280       C  0.42544495  0.79495141  0.09657532    -0.06500
N1281       N  0.52793024  0.91537554  0.08912469    -0.26000
N1282       N  0.43039192  0.78456446  0.14768634    -0.46800
H1283       H  0.05837308  0.77078018  0.10970294     0.06800
C1284       C  0.04653852  0.96140603  0.14997901    -0.06900
Cl1285     Cl  0.48806583  0.87632541  0.12242380    -0.49900
C1286       C  0.41424574  0.95420746  0.16429074     0.42600
H1287       H  0.06018168  0.90415820  0.06539712     0.06800
N1288       N  0.04199222  0.91815854  0.17199143    -0.46600
C1289       C  0.42234527  0.53148130  0.19691739    -0.09200
C1290       C  0.39186033  0.53018054  0.20652083     0.07000
C1291       C  0.36918337  0.50311550  0.20276218    -0.02900
C1292       C  0.37685563  0.97840134  0.18886656    -0.07400
C1293       C  0.40702492  0.98032604  0.17884890     0.06100
C1294       C  0.43036697  0.00655189  0.18335671    -0.02400
Br1295     Br  0.47444877  0.00872811  0.17265193    -0.02100
H1296       H  0.44017797  0.55173737  0.20024652     0.10100
H1297       H  0.35924789  0.95778086  0.18582048     0.08100
Br1298     Br  0.32760547  0.49924280  0.21615344    -0.02500
C1299       C  0.37127411  0.74102999  0.20361540    -0.09200
C1300       C  0.39245023  0.71168246  0.20583025     0.07000
C1301       C  0.42170041  0.70967321  0.19470221    -0.02900
C1302       C  0.42818127  0.73549240  0.18087270    -0.07400
C1303       C  0.40677763  0.76455041  0.17849950     0.06100
C1304       C  0.37869852  0.76777110  0.19040424    -0.02400
Br1305     Br  0.34999535  0.80828404  0.18916485    -0.02100
H1306       H  0.34916266  0.74335069  0.21239756     0.10100
H1307       H  0.45070102  0.73351032  0.17240190     0.08100
Br1308     Br  0.45476674  0.67367086  0.19878143    -0.02500
C1309       C  0.09728658  0.99465101  0.17866112    -0.09200
C1310       C  0.07119752  0.97163176  0.18334881     0.07000
C1311       C  0.05667095  0.97329464  0.20167925    -0.02900
C1312       C  0.06645283  0.49958425  0.21411411    -0.07400
C1313       C  0.09156464  0.52341245  0.20907640     0.06100
C1314       C  0.10801007  0.51986654  0.19152293    -0.02400
Br1315     Br  0.14561439  0.54835197  0.18481052    -0.02100
H1316       H  0.10931871  0.99306308  0.16489981     0.10100
H1317       H  0.05416090  0.50173374  0.22777820     0.08100
Br1318     Br  0.52247720  0.94192808  0.21069500    -0.02500
C1319       C  0.04322438  0.75663200  0.19670090    -0.09200
C1320       C  0.06138078  0.76071405  0.17973563     0.07000
C1321       C  0.08720094  0.73679081  0.17555236    -0.02900
C1322       C  0.09571944  0.71047379  0.18874191    -0.07400
C1323       C  0.07816914  0.70702220  0.20592880     0.06100
C1324       C  0.05111055  0.72973058  0.20963255    -0.02400
Br1325     Br  0.02375213  0.72434680  0.23188261    -0.02100
H1326       H  0.02245645  0.77401922  0.19977518     0.10100
H1327       H  0.11633960  0.69287381  0.18570219     0.08100
Br1328     Br  0.11216970  0.73982744  0.15231441    -0.02500
C1329       C  0.06996961  0.49187057  0.82107890    -0.09200
C1330       C  0.08859085  0.52182852  0.82587294     0.07000
C1331       C  0.12093334  0.52525475  0.81785919    -0.02900
C1332       C  0.13353384  0.99902981  0.80571978    -0.07400
C1333       C  0.11465523  0.96920869  0.80133858     0.06100
C1334       C  0.08256035  0.46598671  0.80911074    -0.02400
Br1335     Br  0.55422642  0.42722566  0.80320535    -0.02100
H1336       H  0.04499337  0.48829275  0.82660212     0.10100
H1337       H  0.15811398  0.00201131  0.79952440     0.08100
Br1338     Br  0.14973024  0.56407580  0.82261525    -0.02500
C1339       C  0.11349726  0.73175926  0.82124190    -0.09200
C1340       C  0.08692146  0.74273737  0.83287894     0.07000
C1341       C  0.07759095  0.77894589  0.83212782    -0.02900
C1342       C  0.09082862  0.80116454  0.81816937    -0.07400
C1343       C  0.11615985  0.78994365  0.80592192     0.06100
C1344       C  0.12884541  0.75528833  0.80832034    -0.02400
Br1345     Br  0.16749373  0.73909763  0.79478051    -0.02100
H1346       H  0.12225215  0.70475558  0.82208009     0.10100
H1347       H  0.08141550  0.82791437  0.81705959     0.08100
Br1348     Br  0.05021336  0.80252382  0.85056457    -0.02500
C1349       C  0.37972887  0.48816035  0.80406406    -0.09200
C1350       C  0.40296985  0.96914639  0.79323403     0.07000
C1351       C  0.43692230  0.97721218  0.79448711    -0.02900
C1352       C  0.44723065  0.00370625  0.80658463    -0.07400
C1353       C  0.42423216  0.52227429  0.81785259     0.06100
C1354       C  0.39009974  0.51443209  0.81646577    -0.02400
Br1355     Br  0.35704831  0.53600424  0.83234490    -0.02100
H1356       H  0.35353601  0.48191875  0.80317589     0.10100
H1357       H  0.47359079  0.00913867  0.80760539     0.08100
Br1358     Br  0.47009606  0.95202958  0.78030800    -0.02500
C1359       C  0.38712998  0.73583553  0.81648567    -0.09200
C1360       C  0.42139756  0.73181589  0.81967274     0.07000
C1361       C  0.44381152  0.75447644  0.81004586    -0.02900
C1362       C  0.43182040  0.78150735  0.79832857    -0.07400
C1363       C  0.39766296  0.78614245  0.79558633     0.06100
C1364       C  0.37520254  0.76272721  0.80445242    -0.02400
Br1365     Br  0.32818084  0.76712542  0.80065999    -0.02100
H1366       H  0.36958418  0.71873588  0.82374347     0.10100
H1367       H  0.44926367  0.79864879  0.79099456     0.08100
Br1368     Br  0.49119564  0.74850248  0.81120842    -0.02500
C1369       C  0.14564095  0.75672121  0.06475195    -0.09200
C1370       C  0.15621384  0.78060370  0.05069570     0.07000
C1371       C  0.14074621  0.81358712  0.04901394    -0.02900
C1372       C  0.11429257  0.82196323  0.06090416    -0.07400
C1373       C  0.10178097  0.79750574  0.07432340     0.06100
C1374       C  0.11847555  0.76471349  0.07655871    -0.02400
Br1375     Br  0.10542195  0.72858562  0.09425615    -0.02100
H1376       H  0.15775447  0.73123242  0.06599913     0.10100
H1377       H  0.10267709  0.84756312  0.05899616     0.08100
Br1378     Br  0.15349327  0.84712567  0.02972534    -0.02500
C1379       C  0.36438534  0.76927789  0.07394712    -0.09200
C1380       C  0.38299096  0.79860772  0.06773924     0.07000
C1381       C  0.37428066  0.81537051  0.05034914    -0.02900
C1382       C  0.34796757  0.80263775  0.03982476    -0.07400
C1383       C  0.32965037  0.77357673  0.04604400     0.06100
C1384       C  0.33788739  0.75670071  0.06324097    -0.02400
Br1385     Br  0.31384055  0.71645469  0.07248304    -0.02100
H1386       H  0.37031055  0.75596851  0.08715230     0.10100
H1387       H  0.34145379  0.81575884  0.02661422     0.08100
Br1388     Br  0.39620855  0.85564596  0.03935146    -0.02500
C1389       C  0.13938120  0.70074841  0.95867265    -0.09200
C1390       C  0.14950231  0.73567436  0.95616540     0.07000
C1391       C  0.13042819  0.75848855  0.94455637    -0.02900
C1392       C  0.10167972  0.74590169  0.93563073    -0.07400
C1393       C  0.09148138  0.71086280  0.93843698     0.06100
C1394       C  0.11054528  0.68852488  0.95029566    -0.02400
Br1395     Br  0.09784905  0.64103872  0.95619615    -0.02100
H1396       H  0.15329340  0.68327994  0.96799690     0.10100
H1397       H  0.08794555  0.76310255  0.92610664     0.08100
Br1398     Br  0.14298373  0.80656524  0.94045501    -0.02500
C1399       C  0.35189194  0.68337768  0.93558041    -0.09200
C1400       C  0.37853052  0.70596843  0.93080233     0.07000
C1401       C  0.37742535  0.74084180  0.93752207    -0.02900
C1402       C  0.34971058  0.75234449  0.94815758    -0.07400
C1403       C  0.32301929  0.72959547  0.95237364     0.06100
C1404       C  0.32446285  0.69482003  0.94599079    -0.02400
Br1405     Br  0.29063431  0.66094113  0.95217959    -0.02100
H1406       H  0.35230147  0.65599976  0.93159898     0.10100
H1407       H  0.34942429  0.77880176  0.95372158     0.08100
Br1408     Br  0.41294871  0.77352676  0.93332107    -0.02500
C1409       C  0.13400330  0.00782492  0.05965137    -0.09200
C1410       C  0.15779810  0.98219638  0.05477691     0.07000
C1411       C  0.15575787  0.94837151  0.06301807    -0.02900
C1412       C  0.12790451  0.93927893  0.07389032    -0.07400
C1413       C  0.10274418  0.96407797  0.07761404     0.06100
C1414       C  0.10695560  0.99920446  0.07146220    -0.02400
Br1415     Br  0.07556730  0.03554091  0.07772345    -0.02100
H1416       H  0.13604879  0.03428593  0.05385575     0.10100
H1417       H  0.12536316  0.91236593  0.07897886     0.08100
Br1418     Br  0.18986699  0.91357192  0.05935959    -0.02500
C1419       C  0.32923854  0.95868546  0.06087924    -0.09200
C1420       C  0.32855247  0.99250344  0.05271962     0.07000
C1421       C  0.35443292  0.01614837  0.05656329    -0.02900
C1422       C  0.38189350  0.00471219  0.06718755    -0.07400
C1423       C  0.38367447  0.96992790  0.07409023     0.06100
C1424       C  0.35641764  0.94733987  0.07156170    -0.02400
Br1425     Br  0.35502576  0.90067905  0.08235627    -0.02100
H1426       H  0.30911369  0.94056242  0.05828075     0.10100
H1427       H  0.40259164  0.02237628  0.06918820     0.08100
Br1428     Br  0.35362852  0.06359103  0.04690103    -0.02500
C1429       C  0.12153475  0.53221087  0.96578553    -0.09200
C1430       C  0.15022315  0.51471429  0.95896162     0.07000
C1431       C  0.14929688  0.50064404  0.94051806    -0.02900
C1432       C  0.12207571  0.50807256  0.92864769    -0.07400
C1433       C  0.09444070  0.52729916  0.93528475     0.06100
C1434       C  0.09359992  0.53749282  0.95430925    -0.02400
Br1435     Br  0.05471387  0.55972056  0.96478712    -0.02100
H1436       H  0.12090944  0.54202998  0.98013065     0.10100
H1437       H  0.12300954  0.49988288  0.91400197     0.08100
Br1438     Br  0.18396590  0.97043501  0.93110196    -0.02500
C1439       C  0.37865248  0.56276473  0.94825667    -0.09200
C1440       C  0.38563600  0.54013895  0.93310306     0.07000
C1441       C  0.36278117  0.51307864  0.92935444    -0.02900
C1442       C  0.33452902  0.50810793  0.94108222    -0.07400
C1443       C  0.32788519  0.53048074  0.95642631     0.06100
C1444       C  0.35032249  0.55816895  0.95981421    -0.02400
Br1445     Br  0.34264402  0.59117678  0.97979083    -0.02100
H1446       H  0.39482006  0.58492713  0.95075605     0.10100
H1447       H  0.31773565  0.98665751  0.93824175     0.08100
Br1448     Br  0.36803818  0.98399953  0.90752715    -0.02500
C1449       C  0.18717950  0.51610370  0.69338523    -0.09200
C1450       C  0.16616817  0.51921464  0.67762875     0.07000
C1451       C  0.13986215  0.99521786  0.67567465    -0.02900
C1452       C  0.13498123  0.96867274  0.68939353    -0.07400
C1453       C  0.15596455  0.96584764  0.70515461     0.06100
C1454       C  0.18226306  0.98973709  0.70705276    -0.02400
Br1455     Br  0.21221062  0.48702570  0.72804449    -0.02100
H1456       H  0.20782420  0.53399249  0.69499586     0.10100
H1457       H  0.11442561  0.95060865  0.68797569     0.08100
Br1458     Br  0.10893613  0.99894435  0.65517380    -0.02500
C1459       C  0.18042527  0.73018950  0.69841262    -0.09200
C1460       C  0.16315310  0.73124705  0.68118945     0.07000
C1461       C  0.13917737  0.75779211  0.67805855    -0.02900
C1462       C  0.13332885  0.78322778  0.69191586    -0.07400
C1463       C  0.15129001  0.78265925  0.70892092     0.06100
C1464       C  0.17477058  0.75563630  0.71217132    -0.02400
Br1465     Br  0.20120705  0.75355355  0.73466689    -0.02100
H1466       H  0.19941449  0.71035230  0.70093221     0.10100
H1467       H  0.11507515  0.80380961  0.68933642     0.08100
Br1468     Br  0.11374408  0.75997011  0.65516998    -0.02500
C1469       C  0.31184472  0.52356455  0.69253748    -0.09200
C1470       C  0.32368985  0.51964235  0.67385629     0.07000
C1471       C  0.34445821  0.49072736  0.66959672    -0.02900
C1472       C  0.35212376  0.96595104  0.68375913    -0.07400
C1473       C  0.33934701  0.96935649  0.70222647     0.06100
C1474       C  0.31941780  0.99879324  0.70664387    -0.02400
Br1475     Br  0.30113036  0.00606495  0.73152660    -0.02100
H1476       H  0.29586431  0.54557696  0.69617487     0.10100
H1477       H  0.36804632  0.94374963  0.68035572     0.08100
Br1478     Br  0.36419341  0.48436833  0.64503256    -0.02500
C1479       C  0.30757629  0.73371332  0.69486428    -0.09200
C1480       C  0.32394100  0.73366803  0.67720394     0.07000
C1481       C  0.34679092  0.76063970  0.67284409    -0.02900
C1482       C  0.35287039  0.78702201  0.68606037    -0.07400
C1483       C  0.33640727  0.78701402  0.70368690     0.06100
C1484       C  0.31366674  0.76000517  0.70803883    -0.02400
Br1485     Br  0.29005845  0.75819885  0.73172749    -0.02100
H1486       H  0.28935723  0.71370435  0.69832362     0.10100
H1487       H  0.37073857  0.80744040  0.68267372     0.08100
Br1488     Br  0.37107562  0.76184127  0.64932298    -0.02500
C1489       C  0.12814731  0.98943273  0.32813973    -0.09200
C1490       C  0.16168508  0.97951258  0.32981776     0.07000
C1491       C  0.18575013  0.49691894  0.31853956    -0.02900
C1492       C  0.17595211  0.52236400  0.30515946    -0.07400
C1493       C  0.14233520  0.53137426  0.30299034     0.06100
C1494       C  0.11837375  0.01531698  0.31489646    -0.02400
Br1495     Br  0.07224106  0.02818508  0.31354605    -0.02100
H1496       H  0.10950785  0.97682364  0.33702796     0.10100
H1497       H  0.19461458  0.53515189  0.29635363     0.08100
Br1498     Br  0.23234542  0.48762667  0.32123676    -0.02500
C1499       C  0.18261362  0.74361624  0.31531439    -0.09200
C1500       C  0.15833528  0.76290652  0.32515625     0.07000
C1501       C  0.12451117  0.75736663  0.32131823    -0.02900
C1502       C  0.11541934  0.73276076  0.30768668    -0.07400
C1503       C  0.13980363  0.71344100  0.29788669     0.06100
C1504       C  0.17362664  0.71915385  0.30168683    -0.02400
Br1505     Br  0.20822719  0.69369411  0.28878098    -0.02100
H1506       H  0.20863446  0.74728991  0.31846750     0.10100
H1507       H  0.08933015  0.72810160  0.30500489     0.08100
Br1508     Br  0.09013654  0.78159511  0.33498704    -0.02500
C1509       C  0.31558455  0.97309283  0.30891965    -0.09200
C1510       C  0.32897975  0.97131292  0.32723750     0.07000
C1511       C  0.35463119  0.49474014  0.33195341    -0.02900
C1512       C  0.36498203  0.52057336  0.31880417    -0.07400
C1513       C  0.35004130  0.52358326  0.30091191     0.06100
C1514       C  0.32542152  0.49918322  0.29594854    -0.02400
Br1515     Br  0.30249916  0.00190821  0.27219474    -0.02100
H1516       H  0.29618035  0.95507650  0.30488942     0.10100
H1517       H  0.38442985  0.53871358  0.32262747     0.08100
Br1518     Br  0.37727322  0.49158223  0.35574906    -0.02500
C1519       C  0.35692027  0.74582346  0.32729914    -0.09200
C1520       C  0.32773623  0.76472088  0.32308037     0.07000
C1521       C  0.30865608  0.75530618  0.30724263    -0.02900
C1522       C  0.31895646  0.72731280  0.29604469    -0.07400
C1523       C  0.34804428  0.70853626  0.30027534     0.06100
C1524       C  0.36740499  0.71804863  0.31585842    -0.02400
Br1525     Br  0.40831495  0.69419624  0.32170841    -0.02100
H1526       H  0.37142129  0.75254467  0.33960402     0.10100
H1527       H  0.30414617  0.71998267  0.28396103     0.08100
Br1528     Br  0.26748280  0.77791296  0.30057565    -0.02500
C1529       C  0.10267701  0.70083838  0.57338543    -0.09200
C1530       C  0.12903992  0.72391620  0.57642963     0.07000
C1531       C  0.12636677  0.75914865  0.57013554    -0.02900
C1532       C  0.09824127  0.77011820  0.55998409    -0.07400
C1533       C  0.07357584  0.74583529  0.55509707     0.06100
C1534       C  0.07538160  0.71120751  0.56247965    -0.02400
Br1535     Br  0.04273232  0.67625582  0.55669703    -0.02100
H1536       H  0.10407742  0.67412686  0.57885560     0.10100
H1537       H  0.09712619  0.79676005  0.55433103     0.08100
Br1538     Br  0.16228813  0.79174720  0.57264517    -0.02500
C1539       C  0.38439167  0.72239570  0.54087770    -0.09200
C1540       C  0.39971093  0.75325681  0.54683645     0.07000
C1541       C  0.38607849  0.77140034  0.56237610    -0.02900
C1542       C  0.35893318  0.75695362  0.57244553    -0.07400
C1543       C  0.34395525  0.72535481  0.56666841     0.06100
C1544       C  0.35635987  0.70902448  0.55006074    -0.02400
Br1545     Br  0.33639170  0.66948505  0.53789623    -0.02100
H1546       H  0.39402106  0.70890684  0.52852185     0.10100
H1547       H  0.34924783  0.77088041  0.58460322     0.08100
Br1548     Br  0.40254406  0.81653005  0.56959250    -0.02500
C1549       C  0.08679743  0.79062755  0.44662052    -0.09200
C1550       C  0.08423437  0.75827116  0.45626629     0.07000
C1551       C  0.10783399  0.73151745  0.45261966    -0.02900
C1552       C  0.13487845  0.73844321  0.44046994    -0.07400
C1553       C  0.13839984  0.77168245  0.43180164     0.06100
C1554       C  0.11344730  0.79738688  0.43438936    -0.02400
Br1555     Br  0.11465346  0.84225335  0.42157585    -0.02100
H1556       H  0.06833703  0.81105367  0.44899899     0.10100
H1557       H  0.15398450  0.71852344  0.43856104     0.08100
Br1558     Br  0.10471416  0.68595679  0.46450465    -0.02500
C1559       C  0.41023575  0.79582411  0.44078632    -0.09200
C1560       C  0.41243668  0.76448860  0.45134698     0.07000
C1561       C  0.38891226  0.73773619  0.44860751    -0.02900
C1562       C  0.36234333  0.74355374  0.43617653    -0.07400
C1563       C  0.35883748  0.77602421  0.42666996     0.06100
C1564       C  0.38355276  0.80186704  0.42864310    -0.02400
Br1565     Br  0.38091825  0.84683524  0.41599280    -0.02100
H1566       H  0.42830759  0.81645229  0.44284921     0.10100
H1567       H  0.34316893  0.72379040  0.43503708     0.08100
Br1568     Br  0.39095279  0.69422537  0.46269105    -0.02500
C1569       C  0.08260944  0.55739033  0.54725212    -0.09200
C1570       C  0.07638915  0.52138737  0.54820380     0.07000
C1571       C  0.09734046  0.49935495  0.55902623    -0.02900
C1572       C  0.12435449  0.51383025  0.56871378    -0.07400
C1573       C  0.13163711  0.55000357  0.56709566     0.06100
C1574       C  0.11012346  0.57174499  0.55605099    -0.02400
Br1575     Br  0.11558386  0.62110004  0.55128116    -0.02100
H1576       H  0.06674171  0.57424560  0.53864368     0.10100
H1577       H  0.14046613  0.99652401  0.57687358     0.08100
Br1578     Br  0.09068873  0.94943536  0.56005711    -0.02500
C1579       C  0.40237410  0.55731312  0.55571927    -0.09200
C1580       C  0.40382188  0.52287624  0.54889800     0.07000
C1581       C  0.37776839  0.49938171  0.55323914    -0.02900
C1582       C  0.34957287  0.51137596  0.56307097    -0.07400
C1583       C  0.34719872  0.54658678  0.56872279     0.06100
C1584       C  0.37453217  0.56913911  0.56578393    -0.02400
Br1585     Br  0.37579703  0.61580864  0.57589269    -0.02100
H1586       H  0.42262118  0.57530561  0.55275662     0.10100
H1587       H  0.32896752  0.49362386  0.56559922     0.08100
Br1588     Br  0.37954648  0.95112336  0.54554351    -0.02500
C1589       C  0.11376616  0.96056954  0.42948235    -0.09200
C1590       C  0.13689540  0.93799028  0.43841703     0.07000
C1591       C  0.13028674  0.92662488  0.45728526    -0.02900
C1592       C  0.10017134  0.93504180  0.46594426    -0.07400
C1593       C  0.07749962  0.95812555  0.45732558     0.06100
C1594       C  0.08462593  0.97142767  0.43898770    -0.02400
Br1595     Br  0.05672771  0.50619660  0.42703485    -0.02100
H1596       H  0.11860317  0.47029356  0.41523086     0.10100
H1597       H  0.09559023  0.92589383  0.48034592     0.08100
Br1598     Br  0.16253532  0.90505887  0.47383408    -0.02500
C1599       C  0.37485057  0.95486129  0.46563878    -0.09200
C1600       C  0.40175874  0.97200209  0.45685244     0.07000
C1601       C  0.40008837  0.97984581  0.43723588    -0.02900
C1602       C  0.37337372  0.96723778  0.42658576    -0.07400
C1603       C  0.34742597  0.94848816  0.43543898     0.06100
C1604       C  0.34735546  0.94454206  0.45533469    -0.02400
Br1605     Br  0.30946102  0.92825999  0.46967714    -0.02100
H1606       H  0.37496780  0.94991504  0.48079911     0.10100
H1607       H  0.37314771  0.97157110  0.41137963     0.08100
Br1608     Br  0.43266019  0.00867197  0.42457747    -0.02500
N1609       N  0.54040818  0.98843559  0.50265903    -0.36600
N1610       N  0.99033750  0.48103706  0.47340363    -0.57200
N1611       N  0.94051359  0.49610690  0.50228004    -0.36600
N1612       N  0.99048848  0.00526358  0.53082408    -0.57200
C1613       C  0.55884052  0.48810196  0.48651952     0.27000
C1614       C  0.55957822  0.00255425  0.51627493     0.27000
C1615       C  0.92339862  0.50007009  0.48593677     0.27000
C1616       C  0.92290942  0.01287044  0.51590880     0.27000
C1617       C  0.51647414  0.46514447  0.46480479     0.35600
C1618       C  0.96277578  0.46968939  0.46463578     0.35600
C1619       C  0.51735039  0.00608858  0.54220208     0.35600
C1620       C  0.96351291  0.00900220  0.54213211     0.35600
C1621       C  0.58997056  0.50204469  0.48991903    -0.21900
C1622       C  0.59053249  0.01094928  0.50866922    -0.21900
C1623       C  0.89496251  0.52001992  0.48916228    -0.21900
C1624       C  0.89453828  0.02792153  0.50810201    -0.21900
C1625       C  0.50561463  0.44381652  0.45035801    -0.23000
C1626       C  0.97140165  0.44654450  0.45032936    -0.23000
C1627       C  0.50742580  0.01076096  0.56087005    -0.23000
C1628       C  0.97320003  0.01248590  0.56082607    -0.23000
C1629       C  0.54987339  0.47155248  0.46946526    -0.18300
C1630       C  0.55050005  0.00726511  0.53553024    -0.18300
C1631       C  0.93078789  0.01341532  0.53540149    -0.18300
C1632       C  0.93039855  0.48192810  0.46896027    -0.18300
H1633       H  0.61049424  0.50472320  0.47999202     0.14600
H1634       H  0.61161646  0.02201735  0.51588094     0.14600
H1635       H  0.87594643  0.52712994  0.47900761     0.14600
H1636       H  0.87530809  0.04274948  0.51534814     0.14600
H1637       H  0.52072259  0.42821246  0.44082710     0.12900
H1638       H  0.95489433  0.43319510  0.44078601     0.12900
H1639       H  0.52320632  0.01397798  0.57307838     0.12900
H1640       H  0.95739903  0.01705381  0.57305190     0.12900
H1641       H  0.51771661  0.97589885  0.50471124     0.26200
H1642       H  0.96036191  0.47884367  0.50451168     0.26100
N1643       N  0.94302591  0.26366211  0.50149893    -0.36600
N1644       N  0.48991021  0.26590837  0.53294031    -0.57200
N1645       N  0.54382928  0.25578507  0.50500276    -0.36600
N1646       N  0.49641958  0.25807181  0.47395811    -0.57200
C1647       C  0.92283216  0.27272888  0.51605864     0.27000
C1648       C  0.92609196  0.26996431  0.48530607     0.27000
C1649       C  0.56188635  0.25753090  0.52106154     0.27000
C1650       C  0.56525888  0.25684910  0.49006370     0.27000
C1651       C  0.96122389  0.26212133  0.54301159     0.35600
C1652       C  0.51508896  0.25886612  0.54506386     0.35600
C1653       C  0.97062971  0.25501604  0.46191365     0.35600
C1654       C  0.52426181  0.25241237  0.46363280     0.35600
C1655       C  0.89266845  0.28483762  0.50909523    -0.21900
C1656       C  0.89476193  0.28329951  0.48968672    -0.21900
C1657       C  0.59544441  0.25889666  0.51616246    -0.21900
C1658       C  0.59746537  0.25918885  0.49674862    -0.21900
C1659       C  0.96826300  0.25445284  0.56179579    -0.23000
C1660       C  0.50236739  0.25341773  0.56320360    -0.23000
C1661       C  0.98209795  0.24765453  0.44381436    -0.23000
C1662       C  0.51613520  0.24620466  0.44490949    -0.23000
C1663       C  0.92883218  0.26525559  0.53539184    -0.18300
C1664       C  0.93714723  0.26190799  0.46674132    -0.18300
C1665       C  0.55703614  0.25454692  0.47055571    -0.18300
C1666       C  0.54927558  0.25555104  0.53999065    -0.18300
H1667       H  0.87105433  0.29289691  0.51723892     0.14600
H1668       H  0.87506255  0.29029921  0.47994386     0.14600
H1669       H  0.61671022  0.25929541  0.52540843     0.14600
H1670       H  0.62031439  0.26008019  0.48855620     0.14600
H1671       H  0.95079589  0.25010467  0.57331516     0.12900
H1672       H  0.51608477  0.24743157  0.57599224     0.12900
H1673       H  0.96752124  0.24454834  0.43112015     0.12900
H1674       H  0.53299291  0.24115274  0.43320456     0.12900
H1675       H  0.96472081  0.24876915  0.50271903     0.26200
H1676       H  0.51846657  0.25125702  0.50443541     0.26100
C1677       C  0.82238371  0.43049257  0.42394200     0.42500
N1678       N  0.78061027  0.42202872  0.40591388     0.01300
C1679       C  0.68464104  0.27064240  0.40490940    -0.06500
H1680       H  0.81689585  0.25243078  0.39205271     0.06800
C1681       C  0.80030333  0.32454686  0.33230450    -0.06900
Co1682     Co  0.74637013  0.35481014  0.41673980     0.74200
N1683       N  0.78286424  0.29450716  0.39978834    -0.26100
Co1684     Co  0.74460911  0.29743759  0.37971053     0.74100
C1685       C  0.81545237  0.29032107  0.33685445     0.42600
N1686       N  0.77712722  0.40821908  0.34955639     0.01000
N1687       N  0.77899179  0.30310616  0.35804842     0.01100
N1688       N  0.68803693  0.30923040  0.42894071    -0.46900
H1689       H  0.81439832  0.37783378  0.43960291     0.06800
N1690       N  0.78299580  0.31710253  0.41380046     0.01300
N1691       N  0.70695666  0.30192188  0.35959993     0.01100
C1692       C  0.66900951  0.28783291  0.33967054     0.42700
N1693       N  0.77778980  0.43045813  0.36376970    -0.25500
C1694       C  0.68505948  0.39310374  0.43181675    -0.06400
N1695       N  0.80459709  0.44485273  0.40954695    -0.46600
N1696       N  0.68611063  0.27663127  0.35503545    -0.46900
C1697       C  0.66694518  0.42552184  0.42799751     0.42500
N1698       N  0.71104972  0.31534409  0.41589324     0.01300
N1699       N  0.70544534  0.43039079  0.36558358    -0.25500
N1700       N  0.78178454  0.39399423  0.41710491    -0.26000
N1701       N  0.70493511  0.40881859  0.35105918     0.01000
H1702       H  0.68387270  0.48164322  0.36997691     0.06900
H1703       H  0.67819448  0.33821417  0.32207221     0.06900
N1704       N  0.70981153  0.29322770  0.40169086    -0.26100
N1705       N  0.77779500  0.33002628  0.34608039    -0.25700
N1706       N  0.70740595  0.42058010  0.40797727     0.01300
C1707       C  0.82652283  0.28584405  0.41855482     0.42700
C1708       C  0.80064523  0.45520168  0.35976328    -0.06900
N1709       N  0.70533702  0.32924837  0.34786962    -0.25700
H1710       H  0.80287184  0.34037772  0.31952848     0.06900
N1711       N  0.80844995  0.31281721  0.42528838    -0.46900
H1712       H  0.80425975  0.47891626  0.36779739     0.06900
C1713       C  0.67109709  0.45097994  0.34324942     0.42600
C1714       C  0.80761986  0.39668858  0.42867311    -0.06400
Co1715     Co  0.74271417  0.42680279  0.38592525     0.73800
N1716       N  0.79823476  0.41670825  0.33578377    -0.46600
C1717       C  0.67043007  0.28147088  0.42309623     0.42800
N1718       N  0.68178193  0.44116780  0.41270574    -0.46600
Co1719     Co  0.74114502  0.36903575  0.34829836     0.73900
C1720       C  0.68208123  0.32276949  0.33485985    -0.07000
C1721       C  0.80969575  0.27323756  0.40159902    -0.06500
N1722       N  0.70962453  0.39256509  0.41913424    -0.26000
N1723       N  0.80100881  0.27895341  0.35306106    -0.46800
H1724       H  0.67691652  0.24993747  0.39555934     0.06800
C1725       C  0.68475600  0.45750059  0.36201169    -0.06900
Cl1726     Cl  0.74355843  0.36205559  0.38262900    -0.49900
C1727       C  0.81448793  0.44595120  0.34113003     0.42600
H1728       H  0.67987185  0.37212285  0.44180329     0.06800
N1729       N  0.68523591  0.42053238  0.33734570    -0.46600
C1730       C  0.81532805  0.06024036  0.57616330     0.42500
N1731       N  0.77453125  0.07002455  0.59504585     0.01300
C1732       C  0.67823452  0.22123513  0.60088020    -0.06500
H1733       H  0.80816938  0.24323599  0.60478463     0.06800
C1734       C  0.80173521  0.17217298  0.66768301    -0.06900
Co1735     Co  0.73904170  0.13707570  0.58502522     0.74200
N1736       N  0.77687321  0.19826860  0.59987850    -0.26100
Co1737     Co  0.74195121  0.19600960  0.62195107     0.74100
C1738       C  0.81468358  0.20729744  0.66296686     0.42600
N1739       N  0.77864736  0.08637521  0.65081585     0.01000
N1740       N  0.77930761  0.19163587  0.64194262     0.01100
N1741       N  0.67649495  0.18161125  0.57718627    -0.46900
H1742       H  0.80452782  0.11052181  0.55877806     0.06800
N1743       N  0.77561094  0.17546037  0.58599610     0.01300
N1744       N  0.70719519  0.19237193  0.64405847     0.01100
C1745       C  0.67260860  0.20632244  0.66625954     0.42700
N1746       N  0.77660699  0.06304760  0.63719352    -0.25500
C1747       C  0.67996645  0.09535079  0.57107668    -0.06400
N1748       N  0.79879170  0.04717568  0.59140274    -0.46600
N1749       N  0.68674929  0.21759056  0.64982310    -0.46900
C1750       C  0.66168062  0.06388135  0.57654795     0.42500
N1751       N  0.70281720  0.17640070  0.58805561     0.01300
N1752       N  0.70461043  0.06497884  0.63890742    -0.25500
N1753       N  0.77439790  0.09713611  0.58313193    -0.26000
N1754       N  0.70668083  0.08711708  0.65309847     0.01000
H1755       H  0.68134628  0.01447405  0.63644683     0.06900
H1756       H  0.68449865  0.15544481  0.68291664     0.06900
N1757       N  0.70423211  0.19901206  0.60206762    -0.26100
N1758       N  0.77987134  0.16490553  0.65404764    -0.25700
N1759       N  0.70146664  0.07214460  0.59631572     0.01300
C1760       C  0.81570009  0.20990637  0.57784288     0.42700
C1761       C  0.79757504  0.03638661  0.64119836    -0.06900
N1762       N  0.70767067  0.16519475  0.65584907    -0.25700
H1763       H  0.80427183  0.15738997  0.68080494     0.06900
N1764       N  0.79818768  0.18150282  0.57268120    -0.46900
H1765       H  0.79774900  0.01135973  0.63406105     0.06900
C1766       C  0.67314323  0.04688433  0.66333269     0.42600
C1767       C  0.79897665  0.09296575  0.57051187    -0.06400
Co1768     Co  0.73911595  0.06669608  0.61680118     0.73800
N1769       N  0.79994148  0.07695812  0.66411907    -0.46600
C1770       C  0.65998863  0.20954696  0.58438492     0.42800
N1771       N  0.67694930  0.05020223  0.59216129    -0.46600
Co1772     Co  0.74330817  0.12588183  0.65366023     0.73900
C1773       C  0.68638878  0.17126710  0.67009681    -0.07000
C1774       C  0.80156220  0.22116277  0.59607687    -0.06500
N1775       N  0.70300576  0.09891228  0.58428918    -0.26000
N1776       N  0.79953551  0.21731555  0.64675003    -0.46800
H1777       H  0.67252208  0.24229228  0.61057890     0.06800
C1778       C  0.68376631  0.03898829  0.64393997    -0.06900
Cl1779     Cl  0.74088936  0.13135553  0.61936796    -0.49900
C1780       C  0.81308935  0.04554677  0.65924211     0.42600
H1781       H  0.67942016  0.11075979  0.55813913     0.06800
N1782       N  0.68850167  0.07714485  0.66789163    -0.46600
N1783       N  0.79168297  0.51229807  0.00468236    -0.36600
N1784       N  0.74235730  0.49906102  0.03413706    -0.57200
N1785       N  0.69108657  0.50191734  0.00591003    -0.36600
N1786       N  0.74040297  0.01324114  0.97580866    -0.57200
C1787       C  0.81108745  0.50095540  0.01917634     0.27000
C1788       C  0.81011150  0.00983907  0.98858429     0.27000
C1789       C  0.67468218  0.48697954  0.02078216     0.27000
C1790       C  0.67340195  0.99515973  0.99015168     0.27000
C1791       C  0.76914410  0.50368212  0.04516868     0.35600
C1792       C  0.71564294  0.49899566  0.04582083     0.35600
C1793       C  0.76628409  0.02629669  0.96548223     0.35600
C1794       C  0.71207072  0.02152060  0.96637192     0.35600
C1795       C  0.84209549  0.49118794  0.01217169    -0.21900
C1796       C  0.84151010  0.49691569  0.99291589    -0.21900
C1797       C  0.64648383  0.47015800  0.01437681    -0.21900
C1798       C  0.64574652  0.97519541  0.99503669    -0.21900
C1799       C  0.75945093  0.50670325  0.06398162    -0.23000
C1800       C  0.72539128  0.50381054  0.06439066    -0.23000
C1801       C  0.75439123  0.04285665  0.94927881    -0.23000
C1802       C  0.72007282  0.04025469  0.94995483    -0.23000
C1803       C  0.80225030  0.50089086  0.03867034    -0.18300
C1804       C  0.80039824  0.02202416  0.97037543    -0.18300
C1805       C  0.67962571  0.00997855  0.97192886    -0.18300
C1806       C  0.68332357  0.49036193  0.04007785    -0.18300
H1807       H  0.86320100  0.48139745  0.02012660     0.14600
H1808       H  0.86207473  0.99248892  0.98322297     0.14600
H1809       H  0.62808250  0.45617319  0.02279345     0.14600
H1810       H  0.62656728  0.96594726  0.98567377     0.14600
H1811       H  0.77535172  0.50962386  0.07616125     0.12900
H1812       H  0.70974904  0.50389925  0.07694748     0.12900
H1813       H  0.76890106  0.05554839  0.93819057     0.12900
H1814       H  0.70304602  0.05043199  0.93938870     0.12900
H1815       H  0.76867943  0.52480940  0.00594122     0.26200
H1816       H  0.71061519  0.51969984  0.00673656     0.26100
N1817       N  0.68868742  0.26073261  0.00233280    -0.36600
N1818       N  0.73734444  0.24829743  0.97244801    -0.57200
N1819       N  0.78972707  0.25325836  0.00047053    -0.36600
N1820       N  0.74112803  0.26173798  0.03087146    -0.57200
C1821       C  0.66797950  0.25205309  0.98811957     0.27000
C1822       C  0.67047446  0.26046708  0.01854831     0.27000
C1823       C  0.80724688  0.24003619  0.98572086     0.27000
C1824       C  0.80892618  0.24945568  0.01603653     0.27000
C1825       C  0.70973216  0.24863488  0.96159773     0.35600
C1826       C  0.76382615  0.24533636  0.96061106     0.35600
C1827       C  0.71536761  0.27302160  0.04158885     0.35600
C1828       C  0.76886891  0.27015724  0.04039897     0.35600
C1829       C  0.63607223  0.24735889  0.99544841    -0.21900
C1830       C  0.63771337  0.25251416  0.01457418    -0.21900
C1831       C  0.83786201  0.22767612  0.99210311    -0.21900
C1832       C  0.83898256  0.23392207  0.01118627    -0.21900
C1833       C  0.71871237  0.24582312  0.94266819    -0.23000
C1834       C  0.75296797  0.24404439  0.94202520    -0.23000
C1835       C  0.72667469  0.28761591  0.05822287    -0.23000
C1836       C  0.76069681  0.28609201  0.05739133    -0.23000
C1837       C  0.67660328  0.24804423  0.96869206    -0.18300
C1838       C  0.68171420  0.27011989  0.03665711    -0.18300
C1839       C  0.80143830  0.26273784  0.03415116    -0.18300
C1840       C  0.79721868  0.24002777  0.96650940    -0.18300
H1841       H  0.61365497  0.24102934  0.98785480     0.14600
H1842       H  0.61697442  0.25097394  0.02442243     0.14600
H1843       H  0.85762845  0.21570533  0.98385853     0.14600
H1844       H  0.85967189  0.22800385  0.02045023     0.14600
H1845       H  0.70228250  0.24443165  0.93062638     0.12900
H1846       H  0.76806791  0.24077892  0.92939440     0.12900
H1847       H  0.71196741  0.29873083  0.06961294     0.12900
H1848       H  0.77743576  0.29564921  0.06807478     0.12900
H1849       H  0.71291224  0.26951259  0.00090677     0.26200
H1850       H  0.76804235  0.26813249  0.99959991     0.26100
C1851       C  0.91112538  0.05130275  0.91881356     0.42500
N1852       N  0.93166053  0.08223025  0.89594215     0.01300
C1853       C  0.58189099  0.08149776  0.84718906    -0.06500
H1854       H  0.60334061  0.09505470  0.91471932     0.06800
C1855       C  0.53446635  0.20910371  0.91850410    -0.06900
Co1856     Co  0.99812157  0.05975719  0.88079526     0.74200
N1857       N  0.55601282  0.08700343  0.90147404    -0.26100
Co1858     Co  0.55546757  0.12772890  0.88150718     0.74100
C1859       C  0.56586681  0.19496603  0.92639732     0.42600
N1860       N  0.94859474  0.18312508  0.90047891     0.01000
N1861       N  0.55058575  0.16320516  0.90321086     0.01100
N1862       N  0.54487585  0.03735222  0.84932199    -0.46900
H1863       H  0.95792608  0.01514183  0.91943309     0.06800
N1864       N  0.53395057  0.06133654  0.90237428     0.01300
N1865       N  0.55492821  0.17130876  0.86236467     0.01100
C1866       C  0.56822832  0.21635883  0.84475038     0.42700
N1867       N  0.92775906  0.15777673  0.89628892    -0.25500
C1868       C  0.96535093  0.03477461  0.84458128    -0.06400
N1869       N  0.90538631  0.07862632  0.90712518    -0.46600
N1870       N  0.57908574  0.18426596  0.85124074    -0.46900
C1871       C  0.93780707  0.04514996  0.83263161     0.42500
N1872       N  0.53758222  0.06246141  0.86141647     0.01300
N1873       N  0.93822907  0.16324949  0.85580782    -0.25500
N1874       N  0.95569517  0.05912698  0.89942142    -0.26000
N1875       N  0.95851807  0.18945099  0.85950703     0.01000
H1876       H  0.90040716  0.15710196  0.83441880     0.06900
H1877       H  0.51755920  0.24256939  0.85069883     0.06900
N1878       N  0.55858861  0.08903418  0.86046248    -0.26100
N1879       N  0.52635252  0.18680313  0.90446653    -0.25700
N1880       N  0.94235018  0.08240186  0.85507039     0.01300
C1881       C  0.57278328  0.04595244  0.92161205     0.42700
C1882       C  0.90027988  0.16073785  0.90661208    -0.06900
N1883       N  0.52974007  0.19353792  0.86367149    -0.25700
H1884       H  0.52172930  0.23351194  0.92169839     0.06900
N1885       N  0.54343672  0.03550168  0.91417617    -0.46900
H1886       H  0.87830304  0.14500972  0.90463521     0.06900
C1887       C  0.93353399  0.20667353  0.83425720     0.42600
C1888       C  0.94471851  0.03774288  0.91372356    -0.06400
Co1889     Co  0.93467330  0.12136218  0.87535187     0.73800
N1890       N  0.93560661  0.20476274  0.91339859    -0.46600
C1891       C  0.57257036  0.04667386  0.83966975     0.42800
N1892       N  0.92405788  0.07470758  0.84006868    -0.46600
Co1893     Co  0.99065169  0.18882687  0.88248639     0.73900
C1894       C  0.53517423  0.22140472  0.85258467    -0.07000
C1895       C  0.58086548  0.07982018  0.91334468    -0.06500
N1896       N  0.96595561  0.05880561  0.85813775    -0.26000
N1897       N  0.57390953  0.16696407  0.91596545    -0.46800
H1898       H  0.60320595  0.09775192  0.84414292     0.06800
C1899       C  0.92052424  0.17215815  0.84028613    -0.06900
Cl1900     Cl  0.99478664  0.12440773  0.88012119    -0.49900
C1901       C  0.90515719  0.19142735  0.91817446     0.42600
H1902       H  0.98099020  0.01153130  0.84392650     0.06800
N1903       N  0.95652009  0.21555739  0.84702777    -0.46600
N1904       N  0.64529271  0.37538158  0.72652053    -0.36600
N1905       N  0.63961535  0.43135229  0.75414491    -0.57200
N1906       N  0.63058399  0.37855637  0.78347769    -0.36600
N1907       N  0.63889384  0.32234968  0.75662279    -0.57200
C1908       C  0.65694002  0.40321327  0.71640725     0.27000
C1909       C  0.65582847  0.34592102  0.71769749     0.27000
C1910       C  0.63422083  0.40798471  0.79389702     0.27000
C1911       C  0.63482726  0.35035727  0.79520232     0.27000
C1912       C  0.63735869  0.45026961  0.73787089     0.35600
C1913       C  0.62806516  0.45234600  0.76807508     0.35600
C1914       C  0.63375755  0.30285818  0.74105075     0.35600
C1915       C  0.62564065  0.30415169  0.77140334     0.35600
C1916       C  0.67517457  0.39135153  0.70096474    -0.21900
C1917       C  0.67452540  0.35508283  0.70179696    -0.21900
C1918       C  0.64135145  0.39849309  0.81245074    -0.21900
C1919       C  0.64211330  0.36214295  0.81324058    -0.21900
C1920       C  0.62484046  0.48362453  0.74147762    -0.23000
C1921       C  0.61875785  0.48488910  0.76063737    -0.23000
C1922       C  0.61739768  0.27202319  0.74588489    -0.23000
C1923       C  0.61178481  0.27306582  0.76510794    -0.23000
C1924       C  0.64943364  0.43884351  0.72014548    -0.18300
C1925       C  0.64649800  0.31130628  0.72289745    -0.18300
C1926       C  0.62738417  0.31489114  0.79051498    -0.18300
C1927       C  0.62711528  0.44276210  0.78747873    -0.18300
H1928       H  0.68728748  0.40717623  0.69010214     0.14600
H1929       H  0.68601939  0.33749865  0.69168307     0.14600
H1930       H  0.64461925  0.41595992  0.82428516     0.14600
H1931       H  0.64599225  0.34619946  0.82586383     0.14600
H1932       H  0.62080317  0.00488728  0.73137390     0.12900
H1933       H  0.60891717  0.00731756  0.76820158     0.12900
H1934       H  0.61036110  0.25101002  0.73653178     0.12900
H1935       H  0.59920348  0.25303311  0.77345456     0.12900
H1936       H  0.62785071  0.37640631  0.73748119     0.26200
H1937       H  0.62036538  0.37784761  0.76999577     0.26100
N1938       N  0.86764423  0.43174857  0.74887245    -0.36600
N1939       N  0.84874266  0.37807921  0.72218290    -0.57200
N1940       N  0.86380119  0.32411113  0.75018202    -0.36600
N1941       N  0.88480727  0.37778644  0.77643798    -0.57200
C1942       C  0.86606584  0.45063814  0.73253895     0.27000
C1943       C  0.88564389  0.45064521  0.76119011     0.27000
C1944       C  0.86139714  0.30457090  0.73434898     0.27000
C1945       C  0.87983729  0.30416759  0.76327267     0.27000
C1946       C  0.83632770  0.40690861  0.71328636     0.35600
C1947       C  0.83548240  0.34993568  0.71357699     0.35600
C1948       C  0.88808766  0.40647957  0.78740242     0.35600
C1949       C  0.88587813  0.34941312  0.78818168     0.35600
C1950       C  0.88335292  0.48187054  0.73445410    -0.21900
C1951       C  0.89550838  0.48200604  0.75261191    -0.21900
C1952       C  0.87583943  0.27176896  0.73747720    -0.21900
C1953       C  0.88732773  0.27144594  0.75576596    -0.21900
C1954       C  0.81481198  0.39704563  0.69905554    -0.23000
C1955       C  0.81444167  0.36085347  0.69917134    -0.23000
C1956       C  0.89141117  0.39630498  0.80623000    -0.23000
C1957       C  0.88999457  0.36009434  0.80672325    -0.23000
C1958       C  0.84698823  0.44164297  0.71660681    -0.18300
C1959       C  0.89135604  0.44130149  0.78032651    -0.18300
C1960       C  0.88639343  0.31406025  0.78211202    -0.18300
C1961       C  0.84431445  0.31465962  0.71768128    -0.18300
H1962       H  0.88619847  0.00277217  0.72401014     0.14600
H1963       H  0.90964219  0.00301163  0.75883114     0.14600
H1964       H  0.87744751  0.25007746  0.72770386     0.14600
H1965       H  0.89962222  0.24948868  0.76276664     0.14600
H1966       H  0.80139058  0.41410431  0.68933031     0.12900
H1967       H  0.80062156  0.34445676  0.68962123     0.12900
H1968       H  0.89523649  0.41314077  0.81827132     0.12900
H1969       H  0.89244781  0.34348703  0.81922314     0.12900
H1970       H  0.85371181  0.40946946  0.75216866     0.26200
H1971       H  0.85191569  0.34802492  0.75264959     0.26100
N1972       N  0.59918561  0.11698467  0.22570622    -0.36600
N1973       N  0.60931370  0.17326788  0.25277954    -0.57200
N1974       N  0.62888886  0.12118935  0.28113731    -0.36600
N1975       N  0.61562489  0.06489446  0.25494335    -0.57200
C1976       C  0.58444506  0.14433790  0.21647936     0.27000
C1977       C  0.58919187  0.08706104  0.21729316     0.27000
C1978       C  0.62798332  0.15061304  0.29171955     0.27000
C1979       C  0.62942758  0.09327096  0.29325820     0.27000
C1980       C  0.60445000  0.19279267  0.23689614     0.35600
C1981       C  0.62243392  0.19508958  0.26569048     0.35600
C1982       C  0.61412202  0.04340131  0.23985766     0.35600
C1983       C  0.62862197  0.04554457  0.26934807     0.35600
C1984       C  0.56519445  0.13167606  0.20186547    -0.21900
C1985       C  0.56822433  0.09555016  0.20235570    -0.21900
C1986       C  0.62822078  0.14134514  0.31078956    -0.21900
C1987       C  0.62909392  0.10516539  0.31176159    -0.21900
C1988       C  0.61415333  0.22728281  0.23980608    -0.23000
C1989       C  0.62562609  0.22871021  0.25805719    -0.23000
C1990       C  0.62603493  0.01018751  0.24472750    -0.23000
C1991       C  0.63506583  0.01149794  0.26342726    -0.23000
C1992       C  0.58933187  0.18047277  0.22023797    -0.18300
C1993       C  0.59944332  0.05238229  0.22228410    -0.18300
C1994       C  0.63283875  0.05754452  0.28807865    -0.18300
C1995       C  0.62961056  0.18555634  0.28463435    -0.18300
H1996       H  0.55058142  0.14688863  0.19182905     0.14600
H1997       H  0.55630813  0.07758797  0.19278620     0.13400
H1998       H  0.62828689  0.15884267  0.32277739     0.14600
H1999       H  0.63003480  0.08946013  0.32465427     0.14600
H2000       H  0.61287466  0.24918708  0.22986313     0.12900
H2001       H  0.63484495  0.25192123  0.26499032     0.12900
H2002       H  0.62749802  0.48720224  0.23583743     0.12900
H2003       H  0.64488578  0.48973287  0.27175592     0.12900
H2004       H  0.61769576  0.11876462  0.23581483     0.26200
H2005       H  0.63327036  0.12045467  0.26664866     0.26100
N2006       N  0.87187440  0.06531387  0.25435401    -0.36600
N2007       N  0.88175059  0.12045405  0.22560678    -0.57200
N2008       N  0.87034175  0.17219278  0.25366239    -0.36600
N2009       N  0.86271540  0.11670039  0.28305986    -0.57200
C2010       C  0.88590876  0.04713068  0.24006852     0.27000
C2011       C  0.87441582  0.04510173  0.27019446     0.27000
C2012       C  0.88310854  0.19266282  0.23956710     0.27000
C2013       C  0.87225283  0.19060078  0.26980312     0.27000
C2014       C  0.87931931  0.09209924  0.21445830     0.35600
C2015       C  0.87918091  0.14903263  0.21411995     0.35600
C2016       C  0.85152153  0.08803142  0.29266511     0.35600
C2017       C  0.85097628  0.14501314  0.29238214     0.35600
C2018       C  0.89798541  0.01511723  0.24692846    -0.21900
C2019       C  0.89051508  0.01376812  0.26600020    -0.21900
C2020       C  0.89318866  0.22453737  0.24688824    -0.21900
C2021       C  0.88610448  0.22332634  0.26598388    -0.21900
C2022       C  0.87507127  0.10263394  0.19572252    -0.23000
C2023       C  0.87494630  0.13884509  0.19551664    -0.23000
C2024       C  0.83294197  0.09814301  0.30830810    -0.23000
C2025       C  0.83268169  0.13437068  0.30816455    -0.23000
C2026       C  0.88467718  0.05716094  0.22077460    -0.18300
C2027       C  0.85924760  0.05301559  0.28771800    -0.18300
C2028       C  0.85820926  0.18023110  0.28734746    -0.18300
C2029       C  0.88416212  0.18384209  0.22017129    -0.18300
H2030       H  0.90988178  0.49438479  0.23889765     0.14600
H2031       H  0.89552218  0.49191243  0.27558040     0.14600
H2032       H  0.90403901  0.24658941  0.23925344     0.14600
H2033       H  0.89016937  0.24435840  0.27589700     0.14600
H2034       H  0.87316858  0.08598011  0.18344819     0.12900
H2035       H  0.87289377  0.15570373  0.18308888     0.12900
H2036       H  0.82089849  0.08125412  0.31871680     0.12900
H2037       H  0.82049795  0.15097688  0.31849793     0.12900
H2038       H  0.85705771  0.08776906  0.25277280     0.26200
H2039       H  0.85702977  0.14891058  0.25213040     0.26100
C2040       C  0.91544499  0.45602450  0.08135433     0.42500
N2041       N  0.95498937  0.44257258  0.10032840     0.01300
C2042       C  0.55192756  0.29212759  0.10018729    -0.06500
H2043       H  0.91768244  0.27198301  0.10460512     0.06800
C2044       C  0.92714813  0.32686247  0.16969638    -0.06900
Co2045     Co  0.99092035  0.37780536  0.08795286     0.74200
N2046       N  0.95183162  0.31508117  0.10054422    -0.26100
Co2047     Co  0.98665121  0.31163305  0.12237190     0.74100
C2048       C  0.91530902  0.29209732  0.16435106     0.42600
N2049       N  0.95004335  0.41524681  0.15564139     0.01000
N2050       N  0.94923050  0.31182275  0.14296751     0.01100
N2051       N  0.55219115  0.33553825  0.07809474    -0.46900
H2052       H  0.92747047  0.40934887  0.06212826     0.06800
N2053       N  0.95383399  0.34038076  0.08762511     0.01300
N2054       N  0.52076917  0.30991790  0.14434753     0.01100
C2055       C  0.55225932  0.28915704  0.16634691     0.42700
N2056       N  0.95131197  0.43961583  0.14218837    -0.25500
C2057       C  0.55397314  0.42001269  0.07755864    -0.06400
N2058       N  0.93078216  0.46597228  0.09740051    -0.46600
N2059       N  0.53941743  0.28243031  0.14915555    -0.46900
C2060       C  0.57060030  0.45084574  0.08474449     0.42500
N2061       N  0.02589967  0.33787735  0.08923386     0.01300
N2062       N  0.52382887  0.43794797  0.14450037    -0.25500
N2063       N  0.95602668  0.41807722  0.08727723    -0.26000
N2064       N  0.52198488  0.41279634  0.15753864     0.01000
H2065       H  0.55072849  0.48678897  0.14329516     0.06900
H2066       H  0.54010232  0.33589799  0.18562782     0.06900
N2067       N  0.02488302  0.31277706  0.10225506    -0.26100
N2068       N  0.94825013  0.33667122  0.15585051    -0.25700
N2069       N  0.02791937  0.44007435  0.10210808     0.01300
C2070       C  0.91113584  0.31090441  0.07935980     0.42700
C2071       C  0.92856012  0.46437759  0.14594800    -0.06900
N2072       N  0.52007995  0.33428313  0.15749760    -0.25700
H2073       H  0.92554996  0.33908272  0.18344060     0.06900
N2074       N  0.93020543  0.33875134  0.07482657    -0.46900
H2075       H  0.92696268  0.48965424  0.13874993     0.06900
C2076       C  0.55832031  0.44844522  0.16841453     0.42600
C2077       C  0.93228688  0.42462550  0.07457871    -0.06400
Co2078     Co  0.98958265  0.44097949  0.12231510     0.73800
N2079       N  0.92834319  0.42305750  0.16913436    -0.46600
C2080       C  0.57018303  0.30746670  0.08395838     0.42800
N2081       N  0.55326586  0.46212830  0.10005137    -0.46600
Co2082     Co  0.98504849  0.37486609  0.15687925     0.73900
C2083       C  0.53932112  0.32362807  0.17188810    -0.07000
C2084       C  0.92544760  0.29496924  0.09656809    -0.06500
N2085       N  0.02793303  0.41539144  0.08912327    -0.26000
N2086       N  0.93039743  0.28457019  0.14767763    -0.46800
H2087       H  0.55836688  0.27077040  0.10969899     0.06800
C2088       C  0.54654258  0.46139330  0.14998174    -0.06900
Cl2089     Cl  0.98806776  0.37633697  0.12241988    -0.49900
C2090       C  0.91421989  0.45419328  0.16427746     0.42600
H2091       H  0.56017137  0.40414453  0.06539773     0.06800
N2092       N  0.54199569  0.41814193  0.17199110    -0.46600
C2093       C  0.92227235  0.03147943  0.19689610    -0.09200
C2094       C  0.89177432  0.03018245  0.20648590     0.07000
C2095       C  0.86910657  0.00311015  0.20272403    -0.02900
C2096       C  0.87680466  0.47838657  0.18884082    -0.07400
C2097       C  0.90698356  0.48031103  0.17883290     0.06100
C2098       C  0.93031836  0.50654093  0.18334497    -0.02400
Br2099     Br  0.97441540  0.50870676  0.17266018    -0.02100
H2100       H  0.94009974  0.05173761  0.20023041     0.10100
H2101       H  0.85920360  0.45776087  0.18579253     0.08100
Br2102     Br  0.82751765  0.99923319  0.21610383    -0.02500
C2103       C  0.87123528  0.24102924  0.20358649    -0.09200
C2104       C  0.89240834  0.21168115  0.20580707     0.07000
C2105       C  0.92167386  0.20967532  0.19469255    -0.02900
C2106       C  0.92817167  0.23549695  0.18086698    -0.07400
C2107       C  0.90676941  0.26455430  0.17848678     0.06100
C2108       C  0.87867690  0.26777381  0.19038100    -0.02400
Br2109     Br  0.84998063  0.30829165  0.18913586    -0.02100
H2110       H  0.84911385  0.24334843  0.21236058     0.10100
H2111       H  0.95070218  0.23351763  0.17240530     0.08100
Br2112     Br  0.95473660  0.17367583  0.19878829    -0.02500
C2113       C  0.59726311  0.49465198  0.17867832    -0.09200
C2114       C  0.57117908  0.47162006  0.18335669     0.07000
C2115       C  0.55663401  0.47327486  0.20168292    -0.02900
C2116       C  0.56638916  0.99956964  0.21412099    -0.07400
C2117       C  0.59149633  0.02340995  0.20909307     0.06100
C2118       C  0.60796163  0.01987321  0.19154476    -0.02400
Br2119     Br  0.64556051  0.04837691  0.18484578    -0.02100
H2120       H  0.60930948  0.49307101  0.16492073     0.10100
H2121       H  0.55408246  0.00171127  0.22778121     0.08100
Br2122     Br  0.02250974  0.44196492  0.21070295    -0.02500
C2123       C  0.54317901  0.25662588  0.19671454    -0.09200
C2124       C  0.56134465  0.26070088  0.17975186     0.07000
C2125       C  0.58717034  0.23677915  0.17557748    -0.02900
C2126       C  0.59568057  0.21046640  0.18877152    -0.07400
C2127       C  0.57811894  0.20701996  0.20595513     0.06100
C2128       C  0.55105958  0.22973141  0.20965168    -0.02400
Br2129     Br  0.52369390  0.22436245  0.23189995    -0.02100
H2130       H  0.52240948  0.27401458  0.19978300     0.10100
H2131       H  0.61630278  0.19286551  0.18573779     0.08100
Br2132     Br  0.61215896  0.23981526  0.15234633    -0.02500
C2133       C  0.57002093  0.99187804  0.82110320    -0.09200
C2134       C  0.58865496  0.02181165  0.82592241     0.07000
C2135       C  0.62102673  0.02520894  0.81794430    -0.02900
C2136       C  0.63362380  0.49898782  0.80580576    -0.07400
C2137       C  0.61472691  0.46919478  0.80139733     0.06100
C2138       C  0.58262568  0.96598995  0.80914305    -0.02400
Br2139     Br  0.05419954  0.92717096  0.80322235    -0.02100
H2140       H  0.54502456  0.98832283  0.82660061     0.10100
H2141       H  0.65822825  0.50194230  0.79963855     0.08100
Br2142     Br  0.64985485  0.06397974  0.82275424    -0.02500
C2143       C  0.61354295  0.23174276  0.82129096    -0.09200
C2144       C  0.58695514  0.24272155  0.83291901     0.07000
C2145       C  0.57762667  0.27893069  0.83216582    -0.02900
C2146       C  0.59088547  0.30115150  0.81821526    -0.07400
C2147       C  0.61622975  0.28993043  0.80597696     0.06100
C2148       C  0.62890692  0.25527194  0.80837593    -0.02400
Br2149     Br  0.66756032  0.23907424  0.79484305    -0.02100
H2150       H  0.62229379  0.20473770  0.82213026     0.10100
H2151       H  0.58147575  0.32790237  0.81710317     0.08100
Br2152     Br  0.55021770  0.30250755  0.85058797    -0.02500
C2153       C  0.87974394  0.98816233  0.80404044    -0.09200
C2154       C  0.90298279  0.46914563  0.79322446     0.07000
C2155       C  0.93693460  0.47720999  0.79448293    -0.02900
C2156       C  0.94723672  0.50370948  0.80657847    -0.07400
C2157       C  0.92423955  0.02227509  0.81783685     0.06100
C2158       C  0.89010761  0.01443727  0.81644201    -0.02400
Br2159     Br  0.85704598  0.03602133  0.83230959    -0.02100
H2160       H  0.85355113  0.98192423  0.80314579     0.10100
H2161       H  0.97359657  0.50914038  0.80760366     0.08100
Br2162     Br  0.97011484  0.45202123  0.78031209    -0.02500
C2163       C  0.88712586  0.23583404  0.81645583    -0.09200
C2164       C  0.92139179  0.23180102  0.81964450     0.07000
C2165       C  0.94381486  0.25445072  0.81001688    -0.02900
C2166       C  0.93183520  0.28148541  0.79829850    -0.07400
C2167       C  0.89767999  0.28613526  0.79555558     0.06100
C2168       C  0.87520974  0.26273056  0.80442161    -0.02400
Br2169     Br  0.82818979  0.26715467  0.80062981    -0.02100
H2170       H  0.86957297  0.21874371  0.82371442     0.10100
H2171       H  0.94928554  0.29861948  0.79096497     0.08100
Br2172     Br  0.99119667  0.24845928  0.81118119    -0.02500
C2173       C  0.64563654  0.25671775  0.06474572    -0.09200
C2174       C  0.65621685  0.28060671  0.05069401     0.07000
C2175       C  0.64074196  0.31358687  0.04901157    -0.02900
C2176       C  0.61427924  0.32195515  0.06089768    -0.07400
C2177       C  0.60176513  0.29749371  0.07431415     0.06100
C2178       C  0.61846159  0.26470208  0.07654789    -0.02400
Br2179     Br  0.60539199  0.22856243  0.09423459    -0.02100
H2180       H  0.65775015  0.23122887  0.06599171     0.10100
H2181       H  0.60265978  0.34755287  0.05898912     0.08100
Br2182     Br  0.65348909  0.34713009  0.02972526    -0.02500
C2183       C  0.86439800  0.26929474  0.07393149    -0.09200
C2184       C  0.88299550  0.29863534  0.06773099     0.07000
C2185       C  0.87427876  0.31541281  0.05034581    -0.02900
C2186       C  0.84796677  0.30268424  0.03981931    -0.07400
C2187       C  0.82965774  0.27361286  0.04603148     0.06100
C2188       C  0.83790199  0.25672116  0.06322279    -0.02400
Br2189     Br  0.81386836  0.21645712  0.07245263    -0.02100
H2190       H  0.87032914  0.25597302  0.08713225     0.10100
H2191       H  0.84144789  0.31581597  0.02661258     0.08100
Br2192     Br  0.89619516  0.35570338  0.03935730    -0.02500
C2193       C  0.63937882  0.20073266  0.95869119    -0.09200
C2194       C  0.64950822  0.23565261  0.95616788     0.07000
C2195       C  0.63043365  0.25845752  0.94455413    -0.02900
C2196       C  0.60167488  0.24586839  0.93564090    -0.07400
C2197       C  0.59146627  0.21083767  0.93846506     0.06100
C2198       C  0.61053164  0.18850833  0.95032732    -0.02400
Br2199     Br  0.59782304  0.14103397  0.95624895    -0.02100
H2200       H  0.65329186  0.18327237  0.96801943     0.10100
H2201       H  0.58794015  0.26306032  0.92611247     0.08100
Br2202     Br  0.64300099  0.30652456  0.94043011    -0.02500
C2203       C  0.85192398  0.18337168  0.93558724    -0.09200
C2204       C  0.87854549  0.20597355  0.93079272     0.07000
C2205       C  0.87742152  0.24085882  0.93749400    -0.02900
C2206       C  0.84970534  0.25236124  0.94812866    -0.07400
C2207       C  0.82302944  0.22960135  0.95236051     0.06100
C2208       C  0.82449153  0.19481468  0.94599525    -0.02400
Br2209     Br  0.79068181  0.16092646  0.95220329    -0.02100
H2210       H  0.85234961  0.15598680  0.93161844     0.10100
H2211       H  0.84940531  0.27882901  0.95367846     0.08100
Br2212     Br  0.91291874  0.27356383  0.93326430    -0.02500
C2213       C  0.63399638  0.50778205  0.05963234    -0.09200
C2214       C  0.65779888  0.48215138  0.05477294     0.07000
C2215       C  0.65576202  0.44833852  0.06302965    -0.02900
C2216       C  0.62790748  0.43925827  0.07390452    -0.07400
C2217       C  0.60274120  0.46405822  0.07761386     0.06100
C2218       C  0.60694620  0.49917481  0.07144393    -0.02400
Br2219     Br  0.57554351  0.53551263  0.07767993    -0.02100
H2220       H  0.63603773  0.53423410  0.05382401     0.10100
H2221       H  0.62536870  0.41235274  0.07900535     0.08100
Br2222     Br  0.68987494  0.41353663  0.05938823    -0.02500
C2223       C  0.82924403  0.45869689  0.06088572    -0.09200
C2224       C  0.82855663  0.49250817  0.05271783     0.07000
C2225       C  0.85444129  0.51615449  0.05655056    -0.02900
C2226       C  0.88190643  0.50472498  0.06717247    -0.07400
C2227       C  0.88368806  0.46994620  0.07408297     0.06100
C2228       C  0.85642861  0.44735770  0.07156518    -0.02400
Br2229     Br  0.85504309  0.40070331  0.08236822    -0.02100
H2230       H  0.80911705  0.44057254  0.05829468     0.10100
H2231       H  0.90260763  0.52238872  0.06916470     0.08100
Br2232     Br  0.85363904  0.56358767  0.04687401    -0.02500
C2233       C  0.62154472  0.03216013  0.96579307    -0.09200
C2234       C  0.65023166  0.01466690  0.95896480     0.07000
C2235       C  0.64930020  0.00060105  0.94052039    -0.02900
C2236       C  0.62207406  0.00802988  0.92865368    -0.07400
C2237       C  0.59444010  0.02725295  0.93529531     0.06100
C2238       C  0.59360576  0.03744272  0.95432039    -0.02400
Br2239     Br  0.55472343  0.05966969  0.96480312    -0.02100
H2240       H  0.62092388  0.04197634  0.98013882     0.10100
H2241       H  0.62300374  0.99984479  0.91400712     0.08100
Br2242     Br  0.68397438  0.47040918  0.93109465    -0.02500
C2243       C  0.87866071  0.06275907  0.94825609    -0.09200
C2244       C  0.88564180  0.04014538  0.93309674     0.07000
C2245       C  0.86278553  0.01308830  0.92934383    -0.02900
C2246       C  0.83453627  0.00810711  0.94107309    -0.07400
C2247       C  0.82789579  0.03046630  0.95642354     0.06100
C2248       C  0.85033370  0.05815268  0.95981546    -0.02400
Br2249     Br  0.84265979  0.09114457  0.97980035    -0.02100
H2250       H  0.89482841  0.08491970  0.95075932     0.10100
H2251       H  0.81774072  0.48666385  0.93823163     0.08100
Br2252     Br  0.86803565  0.48402981  0.90751241    -0.02500
C2253       C  0.68725581  0.01610559  0.69345682    -0.09200
C2254       C  0.66623423  0.01922047  0.67770518     0.07000
C2255       C  0.63990808  0.49523760  0.67575995    -0.02900
C2256       C  0.63504237  0.46868291  0.68947449    -0.07400
C2257       C  0.65605102  0.46583955  0.70522326     0.06100
C2258       C  0.68235416  0.48972394  0.70711644    -0.02400
Br2259     Br  0.71229935  0.98702194  0.72811217    -0.02100
H2260       H  0.70790230  0.03399313  0.69506438     0.10100
H2261       H  0.61447811  0.45062753  0.68806401     0.08100
Br2262     Br  0.60894236  0.49899978  0.65528009    -0.02500
C2263       C  0.68051826  0.23016537  0.69847980    -0.09200
C2264       C  0.66324846  0.23123236  0.68125584     0.07000
C2265       C  0.63929290  0.25779742  0.67812165    -0.02900
C2266       C  0.63345878  0.28323850  0.69197746    -0.07400
C2267       C  0.65141515  0.28265747  0.70898385     0.06100
C2268       C  0.67487840  0.25561886  0.71223681    -0.02400
Br2269     Br  0.70130863  0.25352103  0.73473472    -0.02100
H2270       H  0.69949406  0.21031495  0.70100177     0.10100
H2271       H  0.61521814  0.30383272  0.68939643     0.08100
Br2272     Br  0.61386565  0.25999761  0.65523103    -0.02500
C2273       C  0.81191866  0.02359264  0.69251281    -0.09200
C2274       C  0.82376653  0.01965744  0.67383282     0.07000
C2275       C  0.84452122  0.99072991  0.66957804    -0.02900
C2276       C  0.85217053  0.46595838  0.68374489    -0.07400
C2277       C  0.83939099  0.46937671  0.70221097     0.06100
C2278       C  0.81948036  0.49882950  0.70662479    -0.02400
Br2279     Br  0.80119594  0.50612647  0.73150594    -0.02100
H2280       H  0.79594959  0.04561594  0.69614715     0.10100
H2281       H  0.86808199  0.44374647  0.68034457     0.08100
Br2282     Br  0.86426248  0.98435715  0.64501684    -0.02500
C2283       C  0.80763190  0.23371849  0.69482840    -0.09200
C2284       C  0.82396171  0.23370676  0.67715727     0.07000
C2285       C  0.84677956  0.26070594  0.67279176    -0.02900
C2286       C  0.85286461  0.28707881  0.68601358    -0.07400
C2287       C  0.83643746  0.28703652  0.70365165     0.06100
C2288       C  0.81372569  0.26000162  0.70800788    -0.02400
Br2289     Br  0.79015680  0.25814604  0.73170846    -0.02100
H2290       H  0.78943682  0.21368832  0.69829349     0.10100
H2291       H  0.87070916  0.30751752  0.68262163     0.08100
Br2292     Br  0.87101427  0.26195752  0.64925465    -0.02500
C2293       C  0.62807711  0.48938655  0.32815353    -0.09200
C2294       C  0.66162281  0.47950569  0.32984327     0.07000
C2295       C  0.68568334  0.99694726  0.31857594    -0.02900
C2296       C  0.67587032  0.02238586  0.30519546    -0.07400
C2297       C  0.64224569  0.03135514  0.30301664     0.06100
C2298       C  0.61829260  0.51526842  0.31491189    -0.02400
Br2299     Br  0.57215092  0.52809389  0.31355117    -0.02100
H2300       H  0.60944050  0.47675068  0.33703257     0.10100
H2301       H  0.69452721  0.03520208  0.29639781     0.08100
Br2302     Br  0.73228585  0.98771352  0.32128846    -0.02500
C2303       C  0.68253625  0.24360218  0.31533409    -0.09200
C2304       C  0.65826902  0.26288347  0.32518997     0.07000
C2305       C  0.62443979  0.25733472  0.32136911    -0.02900
C2306       C  0.61533149  0.23272763  0.30774139    -0.07400
C2307       C  0.63970457  0.21341539  0.29792792     0.06100
C2308       C  0.67353253  0.21913739  0.30171110    -0.02400
Br2309     Br  0.70811836  0.19368704  0.28878745    -0.02100
H2310       H  0.70856213  0.24728604  0.31847173     0.10100
H2311       H  0.58923897  0.22806381  0.30507204     0.08100
Br2312     Br  0.59008190  0.28155890  0.33505390    -0.02500
C2313       C  0.81547577  0.47310335  0.30889080    -0.09200
C2314       C  0.82889582  0.47131113  0.32720243     0.07000
C2315       C  0.85457081  0.99472518  0.33190995    -0.02900
C2316       C  0.86491160  0.02056086  0.31876010    -0.07400
C2317       C  0.84994599  0.02358465  0.30087553     0.06100
C2318       C  0.82530969  0.99919820  0.29591966    -0.02400
Br2319     Br  0.80236912  0.50192920  0.27216968    -0.02100
H2320       H  0.79605903  0.45509656  0.30486724     0.10100
H2321       H  0.88437314  0.03869000  0.32257633     0.08100
Br2322     Br  0.87725171  0.99153770  0.35569255    -0.02500
C2323       C  0.85685658  0.24581516  0.32727022    -0.09200
C2324       C  0.82767674  0.26472087  0.32305176     0.07000
C2325       C  0.80859375  0.25531155  0.30721411    -0.02900
C2326       C  0.81888948  0.22731831  0.29601472    -0.07400
C2327       C  0.84797288  0.20853394  0.30024519     0.06100
C2328       C  0.86733474  0.21803829  0.31582911    -0.02400
Br2329     Br  0.90823619  0.19416973  0.32168021    -0.02100
H2330       H  0.87135862  0.25253054  0.33957569     0.10100
H2331       H  0.80407766  0.21999276  0.28393084     0.08100
Br2332     Br  0.76741845  0.27791941  0.30055136    -0.02500
C2333       C  0.60253760  0.20111929  0.57340613    -0.09200
C2334       C  0.62897842  0.22408337  0.57646964     0.07000
C2335       C  0.62643918  0.25933189  0.57018177    -0.02900
C2336       C  0.59836177  0.27042550  0.56002171    -0.07400
C2337       C  0.57361812  0.24624605  0.55511267     0.06100
C2338       C  0.57530076  0.21160155  0.56248372    -0.02400
Br2339     Br  0.54255777  0.17676797  0.55666867    -0.02100
H2340       H  0.60382481  0.17440923  0.57888332     0.10100
H2341       H  0.59733948  0.29708269  0.55438483     0.08100
Br2342     Br  0.66246863  0.29178770  0.57272200    -0.02500
C2343       C  0.88416769  0.22219957  0.54078659    -0.09200
C2344       C  0.89963078  0.25295519  0.54678249     0.07000
C2345       C  0.88608959  0.27109536  0.56234884    -0.02900
C2346       C  0.85889943  0.25673003  0.57241083    -0.07400
C2347       C  0.84378330  0.22523002  0.56659879     0.06100
C2348       C  0.85608464  0.20892755  0.54995951    -0.02400
Br2349     Br  0.83589294  0.16958039  0.53773442    -0.02100
H2350       H  0.89372070  0.20872322  0.52840815     0.10100
H2351       H  0.84929260  0.27064264  0.58459278     0.08100
Br2352     Br  0.90273836  0.31612026  0.56961491    -0.02500
C2353       C  0.58682228  0.29078896  0.44655977    -0.09200
C2354       C  0.58424241  0.25851706  0.45628829     0.07000
C2355       C  0.60785163  0.23173156  0.45272653    -0.02900
C2356       C  0.63492310  0.23855336  0.44058093    -0.07400
C2357       C  0.63846200  0.27171695  0.43183112     0.06100
C2358       C  0.61350219  0.29744299  0.43433222    -0.02400
Br2359     Br  0.61476417  0.34221008  0.42141799    -0.02100
H2360       H  0.56835990  0.31123833  0.44887578     0.10100
H2361       H  0.65403793  0.21862004  0.43874009     0.08100
Br2362     Br  0.60471739  0.18627485  0.46472844    -0.02500
C2363       C  0.91026362  0.29569966  0.44079534    -0.09200
C2364       C  0.91245661  0.26429778  0.45129709     0.07000
C2365       C  0.88893991  0.23756135  0.44850083    -0.02900
C2366       C  0.86238271  0.24345583  0.43607168    -0.07400
C2367       C  0.85888254  0.27598773  0.42662628     0.06100
C2368       C  0.88359327  0.30181877  0.42865526    -0.02400
Br2369     Br  0.88098157  0.34686162  0.41608192    -0.02100
H2370       H  0.92833265  0.31631379  0.44290242     0.10100
H2371       H  0.84321332  0.22369788  0.43488726     0.08100
Br2372     Br  0.89097802  0.19396241  0.46250395    -0.02500
C2373       C  0.58244845  0.05704099  0.54740990    -0.09200
C2374       C  0.57638160  0.02100392  0.54828999     0.07000
C2375       C  0.59742725  0.99899646  0.55906845    -0.02900
C2376       C  0.62439610  0.01353077  0.56877287    -0.07400
C2377       C  0.63152056  0.04974899  0.56722414     0.06100
C2378       C  0.60989279  0.07146534  0.55624339    -0.02400
Br2379     Br  0.61508515  0.12090076  0.55164805    -0.02100
H2380       H  0.56649758  0.07388525  0.53884571     0.10100
H2381       H  0.64058600  0.49625065  0.57688969     0.08100
Br2382     Br  0.59094371  0.44905276  0.56002309    -0.02500
C2383       C  0.90224816  0.05755050  0.55563547    -0.09200
C2384       C  0.90378129  0.02309204  0.54885036     0.07000
C2385       C  0.87779063  0.99953753  0.55322194    -0.02900
C2386       C  0.84957368  0.01148395  0.56305139    -0.07400
C2387       C  0.84711171  0.04670859  0.56866914     0.06100
C2388       C  0.87438325  0.06933330  0.56569499    -0.02400
Br2389     Br  0.87554119  0.11605085  0.57574639    -0.02100
H2390       H  0.92244523  0.07559237  0.55264708     0.10100
H2391       H  0.82901844  0.99367839  0.56560532     0.08100
Br2392     Br  0.87968115  0.45125017  0.54558095    -0.02500
C2393       C  0.61375985  0.46043999  0.42951191    -0.09200
C2394       C  0.63692781  0.43790841  0.43844772     0.07000
C2395       C  0.63034377  0.42653872  0.45731726    -0.02900
C2396       C  0.60021715  0.43490059  0.46597743    -0.07400
C2397       C  0.57751028  0.45794903  0.45736148     0.06100
C2398       C  0.58460710  0.47125316  0.43901970    -0.02400
Br2399     Br  0.55665430  0.00594947  0.42706002    -0.02100
H2400       H  0.61858060  0.97015230  0.41525848     0.10100
H2401       H  0.59565538  0.42574590  0.48037985     0.08100
Br2402     Br  0.66263738  0.40504982  0.47386588    -0.02500
C2403       C  0.87485121  0.45497363  0.46559944    -0.09200
C2404       C  0.90173924  0.47215186  0.45681463     0.07000
C2405       C  0.90006195  0.47999719  0.43719877    -0.02900
C2406       C  0.87336988  0.46734507  0.42654593    -0.07400
C2407       C  0.84744563  0.44855528  0.43539720     0.06100
C2408       C  0.84737184  0.44461602  0.45529327    -0.02400
Br2409     Br  0.80948759  0.42829970  0.46963296    -0.02100
H2410       H  0.87497107  0.45002879  0.48075986     0.10100
H2411       H  0.87314223  0.47167846  0.41133982     0.08100
Br2412     Br  0.93259357  0.50888474  0.42454724    -0.02500
N2413       N  0.54040358  0.48843390  0.50265645    -0.36600
N2414       N  0.99034297  0.98104085  0.47340184    -0.57200
N2415       N  0.94051631  0.99610712  0.50227735    -0.36600
N2416       N  0.99048962  0.50527094  0.53082419    -0.57200
C2417       C  0.55884444  0.98810612  0.48652176     0.27000
C2418       C  0.55957477  0.50254965  0.51627266     0.27000
C2419       C  0.92340331  0.00007272  0.48593360     0.27000
C2420       C  0.92290821  0.51287204  0.51591147     0.27000
C2421       C  0.51647976  0.96514276  0.46480827     0.35600
C2422       C  0.96278210  0.96969491  0.46463244     0.35600
C2423       C  0.51734715  0.50608382  0.54220034     0.35600
C2424       C  0.96351547  0.50901154  0.54213313     0.35600
C2425       C  0.58997245  0.00205442  0.48992066    -0.21900
C2426       C  0.59053063  0.51093996  0.50866750    -0.21900
C2427       C  0.89496682  0.02002207  0.48915881    -0.21900
C2428       C  0.89453602  0.52792172  0.50810519    -0.21900
C2429       C  0.50561993  0.94380969  0.45036376    -0.23000
C2430       C  0.97140927  0.94655244  0.45032514    -0.23000
C2431       C  0.50742381  0.51075445  0.56086864    -0.23000
C2432       C  0.97320496  0.51250098  0.56082632    -0.23000
C2433       C  0.54987907  0.97155340  0.46946799    -0.18300
C2434       C  0.55049650  0.50726163  0.53552783    -0.18300
C2435       C  0.93078924  0.51342054  0.53540375    -0.18300
C2436       C  0.93040430  0.98193165  0.46895704    -0.18300
H2437       H  0.61049510  0.00473655  0.47999324     0.14600
H2438       H  0.61161576  0.52200471  0.51587964     0.14600
H2439       H  0.87595165  0.02713284  0.47900371     0.14600
H2440       H  0.87530680  0.54275088  0.51535142     0.14600
H2441       H  0.52072772  0.92820151  0.44083474     0.12900
H2442       H  0.95490288  0.93320451  0.44078067     0.12900
H2443       H  0.52320516  0.51397175  0.57307660     0.12900
H2444       H  0.95740548  0.51707178  0.57305246     0.12900
H2445       H  0.51771040  0.47590047  0.50470823     0.26200
H2446       H  0.96036377  0.97884291  0.50450901     0.26100
N2447       N  0.94303047  0.76366741  0.50150327    -0.36600
N2448       N  0.48990614  0.76591512  0.53294050    -0.57200
N2449       N  0.54382843  0.75579681  0.50500403    -0.36600
N2450       N  0.49642188  0.75807955  0.47395843    -0.57200
C2451       C  0.92283585  0.77272962  0.51606340     0.27000
C2452       C  0.92609599  0.76997001  0.48531069     0.27000
C2453       C  0.56188408  0.75754158  0.52106335     0.27000
C2454       C  0.56525962  0.75686049  0.49006563     0.27000
C2455       C  0.96122893  0.76212285  0.54301579     0.35600
C2456       C  0.51508438  0.75887344  0.54506452     0.35600
C2457       C  0.97063466  0.75502817  0.46191743     0.35600
C2458       C  0.52426513  0.75242162  0.46363377     0.35600
C2459       C  0.89267093  0.78483599  0.50910051    -0.21900
C2460       C  0.89476462  0.78330103  0.48969193    -0.21900
C2461       C  0.59544265  0.75890702  0.51616522    -0.21900
C2462       C  0.59746543  0.75919980  0.49675147    -0.21900
C2463       C  0.96826905  0.75445326  0.56179973    -0.23000
C2464       C  0.50236180  0.75342362  0.56320391    -0.23000
C2465       C  0.98210270  0.74766837  0.44381787    -0.23000
C2466       C  0.51614035  0.74621310  0.44491029    -0.23000
C2467       C  0.92883677  0.76525468  0.53539633    -0.18300
C2468       C  0.93715184  0.76191723  0.46674560    -0.18300
C2469       C  0.55703878  0.75455724  0.47055746    -0.18300
C2470       C  0.54927154  0.75556002  0.53999204    -0.18300
H2471       H  0.87105599  0.79289167  0.51724453     0.14600
H2472       H  0.87506451  0.79029985  0.47994939     0.14600
H2473       H  0.61670782  0.75930453  0.52541166     0.14600
H2474       H  0.62031522  0.76009059  0.48855973     0.14600
H2475       H  0.95080242  0.75010291  0.57331911     0.12900
H2476       H  0.51607858  0.74743710  0.57599272     0.12900
H2477       H  0.96752577  0.74456232  0.43112373     0.12900
H2478       H  0.53299910  0.74116166  0.43320579     0.12900
H2479       H  0.96472724  0.74877663  0.50272268     0.26200
H2480       H  0.51846630  0.75126962  0.50443602     0.26100
C2481       C  0.82238517  0.93049162  0.42394341     0.42500
N2482       N  0.78061253  0.92202796  0.40591478     0.01300
C2483       C  0.68464446  0.77064081  0.40490905    -0.06500
H2484       H  0.81690457  0.75243373  0.39205577     0.06800
C2485       C  0.80031730  0.82454302  0.33230788    -0.06900
Co2486     Co  0.74637140  0.85480974  0.41674028     0.74200
N2487       N  0.78286861  0.79450656  0.39979095    -0.26100
Co2488     Co  0.74461578  0.79743552  0.37971150     0.74100
C2489       C  0.81546457  0.79031647  0.33685837     0.42600
N2490       N  0.77713812  0.90821710  0.34955753     0.01000
N2491       N  0.77900154  0.80310316  0.35805082     0.01100
N2492       N  0.68803848  0.80922988  0.42893994    -0.46900
H2493       H  0.81439827  0.87783332  0.43960457     0.06800
N2494       N  0.78299815  0.81710274  0.41380272     0.01300
N2495       N  0.70696625  0.80191948  0.35959894     0.01100
C2496       C  0.66902088  0.78783215  0.33966814     0.42700
N2497       N  0.77779800  0.93045670  0.36377064    -0.25500
C2498       C  0.68505867  0.89310479  0.43181481    -0.06400
N2499       N  0.80459999  0.94485128  0.40954767    -0.46600
N2500       N  0.68612008  0.77662950  0.35503360    -0.46900
C2501       C  0.66694615  0.92552353  0.42799444     0.42500
N2502       N  0.71105189  0.81534330  0.41589283     0.01300
N2503       N  0.70545317  0.93038793  0.36558156    -0.25500
N2504       N  0.78178526  0.89399422  0.41710637    -0.26000
N2505       N  0.70494576  0.90881605  0.35105698     0.01000
H2506       H  0.68387670  0.98163861  0.36997491     0.06900
H2507       H  0.67820885  0.83821330  0.32207034     0.06900
N2508       N  0.70981505  0.79322629  0.40169067    -0.26100
N2509       N  0.77780706  0.83002326  0.34608268    -0.25700
N2510       N  0.70740784  0.92057886  0.40797526     0.01300
C2511       C  0.82652806  0.78584907  0.41855754     0.42700
C2512       C  0.80065214  0.95520187  0.35976454    -0.06900
N2513       N  0.70534870  0.82924596  0.34786851    -0.25700
H2514       H  0.80288787  0.84037360  0.31953189     0.06900
N2515       N  0.80845263  0.81282062  0.42529071    -0.46900
H2516       H  0.80426402  0.97891728  0.36779835     0.06900
C2517       C  0.67110610  0.95097546  0.34324658     0.42600
C2518       C  0.80762000  0.89668849  0.42867495    -0.06400
Co2519     Co  0.74271919  0.92680105  0.38592471     0.73800
N2520       N  0.79824604  0.91670763  0.33578531    -0.46600
C2521       C  0.67043235  0.78146978  0.42309565     0.42800
N2522       N  0.68178432  0.94116807  0.41270279    -0.46600
Co2523     Co  0.74115654  0.86903314  0.34829837     0.73900
C2524       C  0.68209411  0.82276812  0.33485796    -0.07000
C2525       C  0.80970197  0.77323963  0.40160206    -0.06500
N2526       N  0.70962469  0.89256431  0.41913278    -0.26000
N2527       N  0.80101856  0.77894963  0.35306445    -0.46800
H2528       H  0.67692097  0.74993507  0.39555922     0.06800
C2529       C  0.68476271  0.95749653  0.36200928    -0.06900
Cl2530     Cl  0.74356452  0.86205383  0.38262921    -0.49900
C2531       C  0.81449678  0.94595218  0.34113159     0.42600
H2532       H  0.67987076  0.87212711  0.44180353     0.06800
N2533       N  0.68524750  0.92052913  0.33734284    -0.46600
C2534       C  0.81532641  0.56024091  0.57616356     0.42500
N2535       N  0.77452705  0.57002400  0.59504450     0.01300
C2536       C  0.67823262  0.72123656  0.60087690    -0.06500
H2537       H  0.80816648  0.74323355  0.60478414     0.06800
C2538       C  0.80172823  0.67217179  0.66768139    -0.06900
Co2539     Co  0.73903793  0.63707508  0.58502286     0.74200
N2540       N  0.77686961  0.69826737  0.59987672    -0.26100
Co2541     Co  0.74194661  0.69600904  0.62194876     0.74100
C2542       C  0.81467624  0.70729654  0.66296571     0.42600
N2543       N  0.77864048  0.58637490  0.65081459     0.01000
N2544       N  0.77930180  0.69163507  0.64194075     0.01100
N2545       N  0.67649281  0.68161317  0.57718267    -0.46900
H2546       H  0.80452598  0.61052128  0.55877734     0.06800
N2547       N  0.77560790  0.67545941  0.58599416     0.01300
N2548       N  0.70718967  0.69237223  0.64405580     0.01100
C2549       C  0.67260489  0.70632458  0.66625749     0.42700
N2550       N  0.77660084  0.56304730  0.63719220    -0.25500
C2551       C  0.67996206  0.59535038  0.57107411    -0.06400
N2552       N  0.79878892  0.54717614  0.59140257    -0.46600
N2553       N  0.68674536  0.71759199  0.64982083    -0.46900
C2554       C  0.66167670  0.56388040  0.57654512     0.42500
N2555       N  0.70281398  0.67640094  0.58805267     0.01300
N2556       N  0.70460477  0.56497865  0.63890521    -0.25500
N2557       N  0.77439383  0.59713502  0.58313023    -0.26000
N2558       N  0.70667462  0.58711734  0.65309611     0.01000
H2559       H  0.68134551  0.51447117  0.63644599     0.06900
H2560       H  0.68449349  0.65544642  0.68291435     0.06900
N2561       N  0.70422886  0.69901203  0.60206480    -0.26100
N2562       N  0.77986494  0.66490470  0.65404572    -0.25700
N2563       N  0.70146226  0.57214413  0.59631318     0.01300
C2564       C  0.81569853  0.70990470  0.57784226     0.42700
C2565       C  0.79756823  0.53638603  0.64119756    -0.06900
N2566       N  0.70766433  0.66519497  0.65584636    -0.25700
H2567       H  0.80426434  0.65738837  0.68080322     0.06900
N2568       N  0.79818598  0.68150156  0.57267988    -0.46900
H2569       H  0.79774219  0.51135908  0.63406035     0.06900
C2570       C  0.67314132  0.54688194  0.66333149     0.42600
C2571       C  0.79897392  0.59296506  0.57051098    -0.06400
Co2572     Co  0.73911082  0.56669576  0.61679926     0.73800
N2573       N  0.79993345  0.57695761  0.66411839    -0.46600
C2574       C  0.65998766  0.70954994  0.58438107     0.42800
N2575       N  0.67694528  0.55020145  0.59215852    -0.46600
Co2576     Co  0.74330162  0.62588176  0.65365805     0.73900
C2577       C  0.68638327  0.67126833  0.67009436    -0.07000
C2578       C  0.80155932  0.72116098  0.59607590    -0.06500
N2579       N  0.70300140  0.59891192  0.58428666    -0.26000
N2580       N  0.79952921  0.71731480  0.64674862    -0.46800
H2581       H  0.67252056  0.74229387  0.61057556     0.06800
C2582       C  0.68376321  0.53898633  0.64393853    -0.06900
Cl2583     Cl  0.74088424  0.63135511  0.61936576    -0.49900
C2584       C  0.81308174  0.54554649  0.65924148     0.42600
H2585       H  0.67941511  0.61075992  0.55813673     0.06800
N2586       N  0.68849760  0.57714386  0.66788983    -0.46600
N2587       N  0.79168714  0.01229337  0.00468232    -0.36600
N2588       N  0.74236155  0.99906377  0.03413773    -0.57200
N2589       N  0.69109093  0.00191447  0.00591057    -0.36600
N2590       N  0.74039929  0.51325036  0.97580900    -0.57200
C2591       C  0.81109146  0.00095285  0.01917690     0.27000
C2592       C  0.81010779  0.50984807  0.98858429     0.27000
C2593       C  0.67468686  0.98697827  0.02078332     0.27000
C2594       C  0.67339808  0.49516415  0.99015077     0.27000
C2595       C  0.76914839  0.00368617  0.04516911     0.35600
C2596       C  0.71564727  0.99899930  0.04582152     0.35600
C2597       C  0.76627992  0.52630875  0.96548325     0.35600
C2598       C  0.71206690  0.52153010  0.96637256     0.35600
C2599       C  0.84209895  0.99118251  0.01217264    -0.21900
C2600       C  0.84151336  0.99690614  0.99291649    -0.21900
C2601       C  0.64648839  0.97015601  0.01437865    -0.21900
C2602       C  0.64574259  0.47519917  0.99503496    -0.21900
C2603       C  0.75945528  0.00670971  0.06398194    -0.23000
C2604       C  0.72539563  0.00381665  0.06439114    -0.23000
C2605       C  0.75438660  0.54287123  0.94928069    -0.23000
C2606       C  0.72006833  0.54026755  0.94995647    -0.23000
C2607       C  0.80225441  0.00089184  0.03867093    -0.18300
C2608       C  0.80039411  0.52203578  0.97037604    -0.18300
C2609       C  0.67962252  0.50998463  0.97192840    -0.18300
C2610       C  0.68332830  0.99036314  0.04007893    -0.18300
H2611       H  0.86320421  0.98139269  0.02012800     0.14600
H2612       H  0.86207189  0.49250142  0.98322226     0.14600
H2613       H  0.62808714  0.95617221  0.02279583     0.14600
H2614       H  0.62656372  0.46595165  0.98567160     0.14600
H2615       H  0.77535617  0.00963134  0.07616146     0.12900
H2616       H  0.70975349  0.00390623  0.07694800     0.12900
H2617       H  0.76889605  0.55556545  0.93819311     0.12900
H2618       H  0.70304119  0.55044570  0.93939074     0.12900
H2619       H  0.76868404  0.02480596  0.00594048     0.26200
H2620       H  0.71061959  0.01969718  0.00673631     0.26100
N2621       N  0.68868623  0.76072743  0.00233292    -0.36600
N2622       N  0.73734243  0.74829794  0.97244770    -0.57200
N2623       N  0.78972591  0.75325868  0.00047049    -0.36600
N2624       N  0.74112759  0.76173184  0.03087169    -0.57200
C2625       C  0.66797742  0.75205393  0.98811901     0.27000
C2626       C  0.67047279  0.76046297  0.01854817     0.27000
C2627       C  0.80724435  0.74003493  0.98572079     0.27000
C2628       C  0.80892482  0.74945367  0.01603643     0.27000
C2629       C  0.70973028  0.74863452  0.96159734     0.35600
C2630       C  0.76382420  0.74533830  0.96061083     0.35600
C2631       C  0.71536663  0.77301070  0.04159004     0.35600
C2632       C  0.76886799  0.77015073  0.04039973     0.35600
C2633       C  0.63606896  0.74736546  0.99544717    -0.21900
C2634       C  0.63771037  0.75251720  0.01457317    -0.21900
C2635       C  0.83785821  0.72767106  0.99210301    -0.21900
C2636       C  0.83897964  0.73391690  0.01118619    -0.21900
C2637       C  0.71871066  0.74582350  0.94266781    -0.23000
C2638       C  0.75296627  0.74404673  0.94202489    -0.23000
C2639       C  0.72667306  0.78760097  0.05822531    -0.23000
C2640       C  0.76069520  0.78608013  0.05739343    -0.23000
C2641       C  0.67660142  0.74804402  0.96869159    -0.18300
C2642       C  0.68171332  0.77011061  0.03665769    -0.18300
C2643       C  0.80143756  0.76273484  0.03415127    -0.18300
C2644       C  0.79721645  0.74002911  0.96650928    -0.18300
H2645       H  0.61365075  0.74104186  0.98785297     0.14600
H2646       H  0.61697063  0.75097965  0.02442098     0.14600
H2647       H  0.85762319  0.71569779  0.98385835     0.14600
H2648       H  0.85966814  0.72799583  0.02045026     0.14600
H2649       H  0.70228101  0.74443163  0.93062593     0.12900
H2650       H  0.76806637  0.74078214  0.92939408     0.12900
H2651       H  0.71196531  0.79871181  0.06961636     0.12900
H2652       H  0.77743365  0.79563553  0.06807760     0.12900
H2653       H  0.71291319  0.76950181  0.00090780     0.26200
H2654       H  0.76804251  0.76813557  0.99959986     0.26100
C2655       C  0.91112320  0.55130951  0.91881524     0.42500
N2656       N  0.93166000  0.58223560  0.89594390     0.01300
C2657       C  0.58188672  0.58150169  0.84718686    -0.06500
H2658       H  0.60334064  0.59505336  0.91471581     0.06800
C2659       C  0.53446352  0.70910459  0.91850469    -0.06900
Co2660     Co  0.99812057  0.55976089  0.88079759     0.74200
N2661       N  0.55601107  0.58700365  0.90147227    -0.26100
Co2662     Co  0.55546468  0.62773064  0.88150668     0.74100
C2663       C  0.56586395  0.69496717  0.92639769     0.42600
N2664       N  0.94859510  0.68312928  0.90048090     0.01000
N2665       N  0.55058298  0.66320581  0.90321142     0.01100
N2666       N  0.54487072  0.53735686  0.84931883    -0.46900
H2667       H  0.95792301  0.51514725  0.91943575     0.06800
N2668       N  0.53394919  0.56133639  0.90237212     0.01300
N2669       N  0.55492510  0.67131145  0.86236519     0.01100
C2670       C  0.56822637  0.71636261  0.84475224     0.42700
N2671       N  0.92775950  0.65778143  0.89629007    -0.25500
C2672       C  0.96535027  0.53477836  0.84458361    -0.06400
N2673       N  0.90538526  0.57863281  0.90712657    -0.46600
N2674       N  0.57908274  0.68426866  0.85124142    -0.46900
C2675       C  0.93780806  0.54515535  0.83263324     0.42500
N2676       N  0.53757815  0.56246493  0.86141423     0.01300
N2677       N  0.93823152  0.66325340  0.85580978    -0.25500
N2678       N  0.95569404  0.55913191  0.89942369    -0.26000
N2679       N  0.95851957  0.68945543  0.85950952     0.01000
H2680       H  0.90041168  0.65710425  0.83441990     0.06900
H2681       H  0.51755901  0.74257563  0.85070243     0.06900
N2682       N  0.55858502  0.58903735  0.86046084    -0.26100
N2683       N  0.52634972  0.68680382  0.90446730    -0.25700
N2684       N  0.94235053  0.58240642  0.85507230     0.01300
C2685       C  0.57278559  0.54594873  0.92160665     0.42700
C2686       C  0.90027813  0.66074451  0.90661090    -0.06900
N2687       N  0.52973770  0.69354132  0.86367283    -0.25700
H2688       H  0.52172664  0.73351302  0.92169878     0.06900
N2689       N  0.54343731  0.53549957  0.91417226    -0.46900
H2690       H  0.87830104  0.64501772  0.90463206     0.06900
C2691       C  0.93353724  0.70667659  0.83425903     0.42600
C2692       C  0.94471628  0.53774855  0.91372587    -0.06400
Co2693     Co  0.93467415  0.62136679  0.87535355     0.73800
N2694       N  0.93560494  0.70476838  0.91339921    -0.46600
C2695       C  0.57256513  0.54667873  0.83966656     0.42800
N2696       N  0.92405911  0.57471329  0.84007006    -0.46600
Co2697     Co  0.99065248  0.68883084  0.88248910     0.73900
C2698       C  0.53517286  0.72140942  0.85258711    -0.07000
C2699       C  0.58086570  0.57981849  0.91334121    -0.06500
N2700       N  0.96595483  0.55880920  0.85814015    -0.26000
N2701       N  0.57390690  0.66696491  0.91596599    -0.46800
H2702       H  0.60320154  0.59775600  0.84414055     0.06800
C2703       C  0.92052793  0.67216109  0.84028764    -0.06900
Cl2704     Cl  0.99478682  0.62441158  0.88012347    -0.49900
C2705       C  0.90515405  0.69143444  0.91817299     0.42600
H2706       H  0.98098908  0.51153472  0.84392885     0.06800
N2707       N  0.95652194  0.71556168  0.84703016    -0.46600
N2708       N  0.64529189  0.87538138  0.72652044    -0.36600
N2709       N  0.63961138  0.93135179  0.75414400    -0.57200
N2710       N  0.63058224  0.87855587  0.78347705    -0.36600
N2711       N  0.63889361  0.82234923  0.75662286    -0.57200
C2712       C  0.65693819  0.90321364  0.71640720     0.27000
C2713       C  0.65583137  0.84592130  0.71769836     0.27000
C2714       C  0.63422183  0.90798410  0.79389608     0.27000
C2715       C  0.63482554  0.85035686  0.79520170     0.27000
C2716       C  0.63735216  0.95026863  0.73786995     0.35600
C2717       C  0.62806190  0.95234515  0.76807447     0.35600
C2718       C  0.63375936  0.80285754  0.74105069     0.35600
C2719       C  0.62563831  0.80415168  0.77140295     0.35600
C2720       C  0.67517639  0.89135278  0.70096589    -0.21900
C2721       C  0.67453025  0.85508396  0.70179870    -0.21900
C2722       C  0.64135451  0.89849239  0.81244955    -0.21900
C2723       C  0.64211433  0.86214229  0.81323960    -0.21900
C2724       C  0.62483263  0.98362291  0.74147690    -0.23000
C2725       C  0.61875209  0.98488757  0.76063690    -0.23000
C2726       C  0.61739870  0.77202271  0.74588429    -0.23000
C2727       C  0.61178290  0.77306592  0.76510711    -0.23000
C2728       C  0.64942794  0.93884331  0.72014460    -0.18300
C2729       C  0.64650119  0.81130624  0.72289777    -0.18300
C2730       C  0.62738070  0.81489121  0.79051462    -0.18300
C2731       C  0.62711530  0.94276142  0.78747818    -0.18300
H2732       H  0.68728964  0.90717807  0.69010366     0.14600
H2733       H  0.68602713  0.83750016  0.69168565     0.14600
H2734       H  0.64462444  0.91595921  0.82428377     0.14600
H2735       H  0.64599399  0.84619874  0.82586276     0.14600
H2736       H  0.62081262  0.50488920  0.73137460     0.12900
H2737       H  0.60892298  0.50731942  0.76820180     0.12900
H2738       H  0.61036315  0.75100951  0.73653094     0.12900
H2739       H  0.59920030  0.75303355  0.77345334     0.12900
H2740       H  0.62784794  0.87640508  0.73748014     0.26200
H2741       H  0.62036181  0.87784726  0.76999556     0.26100
N2742       N  0.86763075  0.93174352  0.74887473    -0.36600
N2743       N  0.84872892  0.87807510  0.72218505    -0.57200
N2744       N  0.86379093  0.82410566  0.75018289    -0.36600
N2745       N  0.88479674  0.87778017  0.77643897    -0.57200
C2746       C  0.86605397  0.95063282  0.73254108     0.27000
C2747       C  0.88563221  0.95063888  0.76119209     0.27000
C2748       C  0.86138640  0.80456643  0.73434954     0.27000
C2749       C  0.87982880  0.80416190  0.76327274     0.27000
C2750       C  0.83631523  0.90690470  0.71328815     0.35600
C2751       C  0.83546939  0.84993182  0.71357863     0.35600
C2752       C  0.88807809  0.90647259  0.78740376     0.35600
C2753       C  0.88587094  0.84940636  0.78818212     0.35600
C2754       C  0.88334353  0.98186370  0.73445596    -0.21900
C2755       C  0.89549913  0.98199856  0.75261369    -0.21900
C2756       C  0.87583020  0.77176484  0.73747681    -0.21900
C2757       C  0.88731970  0.77144099  0.75576532    -0.21900
C2758       C  0.81480078  0.89704226  0.69905663    -0.23000
C2759       C  0.81442988  0.86085010  0.69917244    -0.23000
C2760       C  0.89140533  0.89629716  0.80623097    -0.23000
C2761       C  0.88999030  0.86008657  0.80672366    -0.23000
C2762       C  0.84697689  0.94163852  0.71660863    -0.18300
C2763       C  0.89134544  0.94129462  0.78032823    -0.18300
C2764       C  0.88638706  0.81405405  0.78211188    -0.18300
C2765       C  0.84430237  0.81465574  0.71768235    -0.18300
H2766       H  0.88620565  0.50277984  0.72400856     0.14600
H2767       H  0.90964899  0.50302064  0.75882967     0.14600
H2768       H  0.87743861  0.75007410  0.72770301     0.14600
H2769       H  0.89961563  0.74948386  0.76276530     0.14600
H2770       H  0.80138107  0.91410128  0.68933080     0.12900
H2771       H  0.80061083  0.84445373  0.68962165     0.12900
H2772       H  0.89523263  0.91313238  0.81827230     0.12900
H2773       H  0.89244680  0.84347865  0.81922312     0.12900
H2774       H  0.85369708  0.90946519  0.75217114     0.26200
H2775       H  0.85190503  0.84801896  0.75265110     0.26100
N2776       N  0.59919340  0.61698387  0.22570388    -0.36600
N2777       N  0.60932212  0.67326862  0.25277683    -0.57200
N2778       N  0.62889710  0.62119173  0.28113498    -0.36600
N2779       N  0.61563223  0.56489529  0.25494153    -0.57200
C2780       C  0.58445285  0.64433687  0.21647672     0.27000
C2781       C  0.58920126  0.58705983  0.21729048     0.27000
C2782       C  0.62799286  0.65061610  0.29171671     0.27000
C2783       C  0.62943371  0.59327413  0.29325641     0.27000
C2784       C  0.60445642  0.69279287  0.23689349     0.35600
C2785       C  0.62244299  0.69509112  0.26568715     0.35600
C2786       C  0.61412965  0.54340099  0.23985623     0.35600
C2787       C  0.62862745  0.54554604  0.26934708     0.35600
C2788       C  0.56520407  0.63167449  0.20186220    -0.21900
C2789       C  0.56823495  0.59554858  0.20235240    -0.21900
C2790       C  0.62822939  0.64134950  0.31078689    -0.21900
C2791       C  0.62910026  0.60516983  0.31175959    -0.21900
C2792       C  0.61415895  0.72728348  0.23980293    -0.23000
C2793       C  0.62563356  0.72871167  0.25805359    -0.23000
C2794       C  0.62604122  0.51018718  0.24472716    -0.23000
C2795       C  0.63507060  0.51149871  0.26342715    -0.23000
C2796       C  0.58933803  0.68047205  0.22023562    -0.18300
C2797       C  0.59945216  0.55238097  0.22228209    -0.18300
C2798       C  0.63284287  0.55754712  0.28807762    -0.18300
C2799       C  0.62962096  0.68555881  0.28463090    -0.18300
H2800       H  0.55059157  0.64688672  0.19182539     0.14600
H2801       H  0.55631998  0.57758616  0.19278253     0.13400
H2802       H  0.62829596  0.65884777  0.32277440     0.14600
H2803       H  0.63003979  0.58946546  0.32465260     0.14600
H2804       H  0.61287885  0.74918754  0.22985991     0.12900
H2805       H  0.63485235  0.75192317  0.26498629     0.12900
H2806       H  0.62749180  0.98720335  0.23583718     0.12900
H2807       H  0.64488251  0.98973189  0.27175528     0.12900
H2808       H  0.61770226  0.61876436  0.23581313     0.26200
H2809       H  0.63327882  0.62045582  0.26664644     0.26100
N2810       N  0.87187688  0.56531080  0.25435476    -0.36600
N2811       N  0.88175726  0.62045154  0.22560859    -0.57200
N2812       N  0.87035179  0.67218905  0.25366518    -0.36600
N2813       N  0.86272060  0.61669598  0.28306141    -0.57200
C2814       C  0.88591150  0.54712781  0.24006935     0.27000
C2815       C  0.87441735  0.54509805  0.27019497     0.27000
C2816       C  0.88311985  0.69265896  0.23957020     0.27000
C2817       C  0.87226464  0.69059572  0.26980630     0.27000
C2818       C  0.87932449  0.59209746  0.21445968     0.35600
C2819       C  0.87918922  0.64903087  0.21412218     0.35600
C2820       C  0.85152367  0.58802736  0.29266572     0.35600
C2821       C  0.85098324  0.64500896  0.29238412     0.35600
C2822       C  0.89798766  0.51511403  0.24692912    -0.21900
C2823       C  0.89051649  0.51376438  0.26600073    -0.21900
C2824       C  0.89320291  0.72453192  0.24689197    -0.21900
C2825       C  0.88611915  0.72332010  0.26598768    -0.21900
C2826       C  0.87507740  0.60263336  0.19572402    -0.23000
C2827       C  0.87495434  0.63884449  0.19551868    -0.23000
C2828       C  0.83294374  0.59813932  0.30830849    -0.23000
C2829       C  0.83268654  0.63436697  0.30816583    -0.23000
C2830       C  0.88468004  0.55715852  0.22077559    -0.18300
C2831       C  0.85924802  0.55301149  0.28771813    -0.18300
C2832       C  0.85821966  0.68022645  0.28735037    -0.18300
C2833       C  0.88417167  0.68383979  0.22017415    -0.18300
H2834       H  0.90987950  0.99438789  0.23889705     0.14600
H2835       H  0.89552154  0.99191654  0.27557999     0.14600
H2836       H  0.90405485  0.74658348  0.23925751     0.14600
H2837       H  0.89018594  0.74435102  0.27590124     0.14600
H2838       H  0.87317394  0.58598030  0.18344943     0.12900
H2839       H  0.87290281  0.65570382  0.18309113     0.12900
H2840       H  0.82089822  0.58125068  0.31871653     0.12900
H2841       H  0.82050349  0.65097345  0.31849933     0.12900
H2842       H  0.85706038  0.58776619  0.25277358     0.26200
H2843       H  0.85703758  0.64890837  0.25213267     0.26100
C2844       C  0.91544491  0.95601850  0.08135649     0.42500
N2845       N  0.95499155  0.94256819  0.10032928     0.01300
C2846       C  0.55192943  0.79212296  0.10018839    -0.06500
H2847       H  0.91767977  0.77198145  0.10460639     0.06800
C2848       C  0.92715016  0.82686154  0.16969785    -0.06900
Co2849     Co  0.99092150  0.87780055  0.08795340     0.74200
N2850       N  0.95183095  0.81507771  0.10054496    -0.26100
Co2851     Co  0.98665084  0.81162909  0.12237265     0.74100
C2852       C  0.91530990  0.79209654  0.16435305     0.42600
N2853       N  0.95004724  0.91524521  0.15564264     0.01000
N2854       N  0.94923056  0.81182076  0.14296863     0.01100
N2855       N  0.55219375  0.83553272  0.07809521    -0.46900
H2856       H  0.92747037  0.90934375  0.06212992     0.06800
N2857       N  0.95383420  0.84037679  0.08762560     0.01300
N2858       N  0.52077288  0.80991886  0.14434901     0.01100
C2859       C  0.55226730  0.78916125  0.16634730     0.42700
N2860       N  0.95131596  0.93961374  0.14218936    -0.25500
C2861       C  0.55397805  0.92001099  0.07755956    -0.06400
N2862       N  0.93078349  0.96596717  0.09740205    -0.46600
N2863       N  0.53942428  0.78243333  0.14915637    -0.46900
C2864       C  0.57060417  0.95084534  0.08474490     0.42500
N2865       N  0.02589989  0.83787198  0.08923457     0.01300
N2866       N  0.52382998  0.93794820  0.14450068    -0.25500
N2867       N  0.95602832  0.91807280  0.08727809    -0.26000
N2868       N  0.52198582  0.91279688  0.15753910     0.01000
H2869       H  0.55072794  0.98679015  0.14329580     0.06900
H2870       H  0.54010871  0.83590174  0.18562838     0.06900
N2871       N  0.02488285  0.81277184  0.10225584    -0.26100
N2872       N  0.94825170  0.83666941  0.15585159    -0.25700
N2873       N  0.02792175  0.94006898  0.10210833     0.01300
C2874       C  0.91113438  0.81090237  0.07936070     0.42700
C2875       C  0.92856536  0.96437669  0.14594921    -0.06900
N2876       N  0.52008283  0.83428420  0.15749899    -0.25700
H2877       H  0.92555339  0.83908194  0.18344207     0.06900
N2878       N  0.93020539  0.83874807  0.07482712    -0.46900
H2879       H  0.92696848  0.98965320  0.13875095     0.06900
C2880       C  0.55831927  0.94844690  0.16841541     0.42600
C2881       C  0.93228705  0.92462015  0.07458036    -0.06400
Co2882     Co  0.98958571  0.94097533  0.12231553     0.73800
N2883       N  0.92834797  0.92305723  0.16913591    -0.46600
C2884       C  0.57018394  0.80745981  0.08395863     0.42800
N2885       N  0.55326869  0.96212806  0.10005143    -0.46600
Co2886     Co  0.98505137  0.87486310  0.15687994     0.73900
C2887       C  0.53932648  0.82363115  0.17188885    -0.07000
C2888       C  0.92544597  0.79496690  0.09656904    -0.06500
N2889       N  0.02793536  0.91538588  0.08912364    -0.26000
N2890       N  0.93039693  0.78456891  0.14767926    -0.46800
H2891       H  0.55836807  0.77076520  0.10969990     0.06800
C2892       C  0.54654261  0.96139431  0.14998232    -0.06900
Cl2893     Cl  0.98806931  0.87633290  0.12242051    -0.49900
C2894       C  0.91422500  0.95419311  0.16427873     0.42600
H2895       H  0.56017722  0.90414210  0.06539907     0.06800
N2896       N  0.54199555  0.91814321  0.17199188    -0.46600
C2897       C  0.92227171  0.53147802  0.19689529    -0.09200
C2898       C  0.89177533  0.53018000  0.20648670     0.07000
C2899       C  0.86910768  0.50310689  0.20272609    -0.02900
C2900       C  0.87680564  0.97838872  0.18883963    -0.07400
C2901       C  0.90698670  0.98031141  0.17883370     0.06100
C2902       C  0.93032096  0.00654130  0.18334657    -0.02400
Br2903     Br  0.97441949  0.00870554  0.17266372    -0.02100
H2904       H  0.94009934  0.55173641  0.20022888     0.10100
H2905       H  0.85920450  0.95776361  0.18579044     0.08100
Br2906     Br  0.82752180  0.49922682  0.21610873    -0.02500
C2907       C  0.87124360  0.74102887  0.20359155    -0.09200
C2908       C  0.89241638  0.71168004  0.20581030     0.07000
C2909       C  0.92167980  0.70967433  0.19469400    -0.02900
C2910       C  0.92817503  0.73549599  0.18086808    -0.07400
C2911       C  0.90677269  0.76455372  0.17848942     0.06100
C2912       C  0.87868310  0.76777384  0.19038588    -0.02400
Br2913     Br  0.84998831  0.80829318  0.18914390    -0.02100
H2914       H  0.84912405  0.74334826  0.21236717     0.10100
H2915       H  0.95070380  0.73351644  0.17240492     0.08100
Br2916     Br  0.95474346  0.67367506  0.19878778    -0.02500
C2917       C  0.59725869  0.99465492  0.17868017    -0.09200
C2918       C  0.57117472  0.97162264  0.18335776     0.07000
C2919       C  0.55662659  0.97327787  0.20168320    -0.02900
C2920       C  0.56639798  0.49956687  0.21412032    -0.07400
C2921       C  0.59150454  0.52340744  0.20909153     0.06100
C2922       C  0.60796824  0.51986984  0.19154275    -0.02400
Br2923     Br  0.64556835  0.54837126  0.18484312    -0.02100
H2924       H  0.60930661  0.99307401  0.16492300     0.10100
H2925       H  0.55409284  0.50170839  0.22778099     0.08100
Br2926     Br  0.02251835  0.94196083  0.21070314    -0.02500
C2927       C  0.54318514  0.75662624  0.19671347    -0.09200
C2928       C  0.56135351  0.76070511  0.17975201     0.07000
C2929       C  0.58718085  0.73678525  0.17557775    -0.02900
C2930       C  0.59568955  0.71047014  0.18877072    -0.07400
C2931       C  0.57812471  0.70701935  0.20595300     0.06100
C2932       C  0.55106411  0.72972926  0.20964941    -0.02400
Br2933     Br  0.52369471  0.72435490  0.23189582    -0.02100
H2934       H  0.52241441  0.77401348  0.19978169     0.10100
H2935       H  0.61631319  0.69287094  0.18573730     0.08100
Br2936     Br  0.61217327  0.73982658  0.15234808    -0.02500
C2937       C  0.57001446  0.49188528  0.82109775    -0.09200
C2938       C  0.58865032  0.52181616  0.82591951     0.07000
C2939       C  0.62102506  0.52520955  0.81794490    -0.02900
C2940       C  0.63362408  0.99898861  0.80580386    -0.07400
C2941       C  0.61472862  0.96919339  0.80139753     0.06100
C2942       C  0.58262078  0.46599551  0.80913901    -0.02400
Br2943     Br  0.05417881  0.42718499  0.80321459    -0.02100
H2944       H  0.54501576  0.48833340  0.82659232     0.10100
H2945       H  0.65822620  0.00194592  0.79963397     0.08100
Br2946     Br  0.64985574  0.56397657  0.82275832    -0.02500
C2947       C  0.61353835  0.73174375  0.82129094    -0.09200
C2948       C  0.58695294  0.74272416  0.83292022     0.07000
C2949       C  0.57762655  0.77893380  0.83216775    -0.02900
C2950       C  0.59088412  0.80115380  0.81821640    -0.07400
C2951       C  0.61622598  0.78993110  0.80597680     0.06100
C2952       C  0.62890196  0.75527208  0.80837542    -0.02400
Br2953     Br  0.66755441  0.73907294  0.79484219    -0.02100
H2954       H  0.62228795  0.70473821  0.82212989     0.10100
H2955       H  0.58147584  0.82790531  0.81710493     0.08100
Br2956     Br  0.55022313  0.80251149  0.85059226    -0.02500
C2957       C  0.87975034  0.48816503  0.80404067    -0.09200
C2958       C  0.90297484  0.96913776  0.79322585     0.07000
C2959       C  0.93692766  0.97719672  0.79448512    -0.02900
C2960       C  0.94723226  0.00369640  0.80657982    -0.07400
C2961       C  0.92424249  0.52228263  0.81783710     0.06100
C2962       C  0.89011163  0.51443960  0.81644314    -0.02400
Br2963     Br  0.85704936  0.53601483  0.83231379    -0.02100
H2964       H  0.85355836  0.48192272  0.80314682     0.10100
H2965       H  0.97359276  0.00912360  0.80760532     0.08100
Br2966     Br  0.97010579  0.95200096  0.78031616    -0.02500
C2967       C  0.88712795  0.73582879  0.81645570    -0.09200
C2968       C  0.92139395  0.73180281  0.81964625     0.07000
C2969       C  0.94381476  0.75445664  0.81001973    -0.02900
C2970       C  0.93183228  0.78148720  0.79829962    -0.07400
C2971       C  0.89767676  0.78612978  0.79555479     0.06100
C2972       C  0.87520909  0.76272222  0.80442060    -0.02400
Br2973     Br  0.82818876  0.76713965  0.80062842    -0.02100
H2974       H  0.86957682  0.71873571  0.82371379     0.10100
H2975       H  0.94928069  0.79862472  0.79096695     0.08100
Br2976     Br  0.99119752  0.74847817  0.81118852    -0.02500
C2977       C  0.64563315  0.75670641  0.06474477    -0.09200
C2978       C  0.65621646  0.78059709  0.05069469     0.07000
C2979       C  0.64074456  0.81357896  0.04901348    -0.02900
C2980       C  0.61428199  0.82194767  0.06089943    -0.07400
C2981       C  0.60176517  0.79748511  0.07431440     0.06100
C2982       C  0.61845807  0.76469117  0.07654665    -0.02400
Br2983     Br  0.60538221  0.72854872  0.09423020    -0.02100
H2984       H  0.65774425  0.73121600  0.06598950     0.10100
H2985       H  0.60266485  0.84754683  0.05899193     0.08100
Br2986     Br  0.65349523  0.84712398  0.02972882    -0.02500
C2987       C  0.86439819  0.76929093  0.07393120    -0.09200
C2988       C  0.88299340  0.79863405  0.06773193     0.07000
C2989       C  0.87427436  0.81541390  0.05034775    -0.02900
C2990       C  0.84796317  0.80268456  0.03982076    -0.07400
C2991       C  0.82965691  0.77361028  0.04603159     0.06100
C2992       C  0.83790298  0.75671667  0.06322206    -0.02400
Br2993     Br  0.81387314  0.71644863  0.07244993    -0.02100
H2994       H  0.87033089  0.75596730  0.08713118     0.10100
H2995       H  0.84144261  0.81581806  0.02661481     0.08100
Br2996     Br  0.89618614  0.85570910  0.03936132    -0.02500
C2997       C  0.63937132  0.70073462  0.95869420    -0.09200
C2998       C  0.64950620  0.73565219  0.95616753     0.07000
C2999       C  0.63043639  0.75845585  0.94455051    -0.02900
C3000       C  0.60167721  0.74586773  0.93563731    -0.07400
C3001       C  0.59146301  0.71083977  0.93846512     0.06100
C3002       C  0.61052309  0.68851202  0.95033077    -0.02400
Br3003     Br  0.59780450  0.64104295  0.95625773    -0.02100
H3004       H  0.65328048  0.68327550  0.96802496     0.10100
H3005       H  0.58794632  0.76305809  0.92610625     0.08100
Br3006     Br  0.64301011  0.80651992  0.94042241    -0.02500
C3007       C  0.85191834  0.68337879  0.93558279    -0.09200
C3008       C  0.87854165  0.70597996  0.93079076     0.07000
C3009       C  0.87741950  0.74086350  0.93749454    -0.02900
C3010       C  0.84970421  0.75236436  0.94813033    -0.07400
C3011       C  0.82302709  0.72960488  0.95236013     0.06100
C3012       C  0.82448647  0.69482046  0.94599143    -0.02400
Br3013     Br  0.79067406  0.66093268  0.95219530    -0.02100
H3014       H  0.85234198  0.65599510  0.93161184     0.10100
H3015       H  0.84940552  0.77883053  0.95368229     0.08100
Br3016     Br  0.91291731  0.77356835  0.93326617    -0.02500
C3017       C  0.63400302  0.00778323  0.05963516    -0.09200
C3018       C  0.65780424  0.98215220  0.05477439     0.07000
C3019       C  0.65576650  0.94833857  0.06303004    -0.02900
C3020       C  0.62791141  0.93925770  0.07390436    -0.07400
C3021       C  0.60274575  0.96405794  0.07761468     0.06100
C3022       C  0.60695277  0.99917553  0.07144669    -0.02400
Br3023     Br  0.57555385  0.03551497  0.07768583    -0.02100
H3024       H  0.63604552  0.03423609  0.05382807     0.10100
H3025       H  0.62537196  0.91235162  0.07900418     0.08100
Br3026     Br  0.68987954  0.91353696  0.05938831    -0.02500
C3027       C  0.82924534  0.95869552  0.06088616    -0.09200
C3028       C  0.82855974  0.99250726  0.05271874     0.07000
C3029       C  0.85444478  0.01615237  0.05655262    -0.02900
C3030       C  0.88190894  0.00472106  0.06717481    -0.07400
C3031       C  0.88368892  0.96994184  0.07408473     0.06100
C3032       C  0.85642868  0.94735474  0.07156620    -0.02400
Br3033     Br  0.85503997  0.90070079  0.08236963    -0.02100
H3034       H  0.80911772  0.94057226  0.05829452     0.10100
H3035       H  0.90261056  0.02238389  0.06916787     0.08100
Br3036     Br  0.85364390  0.06358669  0.04687787    -0.02500
C3037       C  0.62154084  0.53216124  0.96579005    -0.09200
C3038       C  0.65022998  0.51467027  0.95896318     0.07000
C3039       C  0.64930259  0.50060421  0.94051874    -0.02900
C3040       C  0.62207758  0.50803019  0.92865078    -0.07400
C3041       C  0.59444111  0.52725084  0.93529108     0.06100
C3042       C  0.59360328  0.53744128  0.95431600    -0.02400
Br3043     Br  0.55471828  0.55966667  0.96479643    -0.02100
H3044       H  0.62091728  0.54197784  0.98013570     0.10100
H3045       H  0.62301020  0.49984515  0.91400425     0.08100
Br3046     Br  0.68396721  0.97040166  0.93109483    -0.02500
C3047       C  0.87865726  0.56276883  0.94825684    -0.09200
C3048       C  0.88563870  0.54015374  0.93309814     0.07000
C3049       C  0.86278181  0.51309732  0.92934519    -0.02900
C3050       C  0.83453179  0.50811779  0.94107400    -0.07400
C3051       C  0.82789119  0.53047801  0.95642398     0.06100
C3052       C  0.85032949  0.55816406  0.95981577    -0.02400
Br3053     Br  0.84265550  0.59115717  0.97980004    -0.02100
H3054       H  0.89482541  0.58492915  0.95075993     0.10100
H3055       H  0.81774550  0.98665299  0.93823055     0.08100
Br3056     Br  0.86803899  0.98402242  0.90751039    -0.02500
C3057       C  0.68725762  0.51610605  0.69345595    -0.09200
C3058       C  0.66623551  0.51921810  0.67770437     0.07000
C3059       C  0.63990500  0.99524216  0.67576022    -0.02900
C3060       C  0.63503758  0.96868645  0.68947414    -0.07400
C3061       C  0.65604622  0.96584008  0.70522282     0.06100
C3062       C  0.68235062  0.98972263  0.70711661    -0.02400
Br3063     Br  0.71230328  0.48702721  0.72811200    -0.02100
H3064       H  0.70790290  0.53399534  0.69506301     0.10100
H3065       H  0.61447216  0.95063267  0.68806322     0.08100
Br3066     Br  0.60893937  0.99900868  0.65528047    -0.02500
C3067       C  0.68051880  0.73016654  0.69847773    -0.09200
C3068       C  0.66324756  0.73123486  0.68125421     0.07000
C3069       C  0.63929285  0.75780115  0.67812094    -0.02900
C3070       C  0.63346030  0.78324140  0.69197736    -0.07400
C3071       C  0.65141754  0.78265859  0.70898343     0.06100
C3072       C  0.67488055  0.75561942  0.71223531    -0.02400
Br3073     Br  0.70131214  0.75352018  0.73473260    -0.02100
H3074       H  0.69949424  0.71031540  0.70099894     0.10100
H3075       H  0.61522005  0.80383634  0.68939709     0.08100
Br3076     Br  0.61386472  0.76000440  0.65523071    -0.02500
C3077       C  0.81191911  0.52359365  0.69251258    -0.09200
C3078       C  0.82376318  0.51965843  0.67383181     0.07000
C3079       C  0.84451919  0.49073246  0.66957601    -0.02900
C3080       C  0.85216670  0.96595376  0.68374698    -0.07400
C3081       C  0.83938336  0.96937235  0.70221222     0.06100
C3082       C  0.81947480  0.99882712  0.70662515    -0.02400
Br3083     Br  0.80118742  0.00612590  0.73150541    -0.02100
H3084       H  0.79594885  0.54561559  0.69614761     0.10100
H3085       H  0.86807725  0.94374069  0.68034749     0.08100
Br3086     Br  0.86425389  0.48435841  0.64501323    -0.02500
C3087       C  0.80762813  0.73371109  0.69482903    -0.09200
C3088       C  0.82395315  0.73370560  0.67715644     0.07000
C3089       C  0.84676437  0.76071060  0.67278996    -0.02900
C3090       C  0.85284856  0.78708214  0.68601257    -0.07400
C3091       C  0.83642633  0.78703350  0.70365214     0.06100
C3092       C  0.81372035  0.75999349  0.70800907    -0.02400
Br3093     Br  0.79015713  0.75812965  0.73171135    -0.02100
H3094       H  0.78943759  0.71367676  0.69829490     0.10100
H3095       H  0.87068833  0.80752517  0.68261993     0.08100
Br3096     Br  0.87099050  0.76197312  0.64925009    -0.02500
C3097       C  0.62808145  0.98937708  0.32815149    -0.09200
C3098       C  0.66162837  0.97950075  0.32984092     0.07000
C3099       C  0.68567992  0.49694705  0.31857744    -0.02900
C3100       C  0.67587001  0.52238477  0.30519578    -0.07400
C3101       C  0.64224647  0.53135831  0.30301656     0.06100
C3102       C  0.61829374  0.01525955  0.31491096    -0.02400
Br3103     Br  0.57215032  0.02807760  0.31355012    -0.02100
H3104       H  0.60944637  0.97673722  0.33702992     0.10100
H3105       H  0.69452847  0.53519699  0.29639752     0.08100
Br3106     Br  0.73228136  0.48770722  0.32129019    -0.02500
C3107       C  0.68254741  0.74360634  0.31532910    -0.09200
C3108       C  0.65828023  0.76288397  0.32518706     0.07000
C3109       C  0.62445087  0.75733368  0.32136735    -0.02900
C3110       C  0.61534229  0.73272768  0.30773919    -0.07400
C3111       C  0.63971525  0.71341841  0.29792397     0.06100
C3112       C  0.67354340  0.71914295  0.30170544    -0.02400
Br3113     Br  0.70812904  0.69369783  0.28877864    -0.02100
H3114       H  0.70857340  0.74729176  0.31846572     0.10100
H3115       H  0.58924969  0.72806213  0.30507094     0.08100
Br3116     Br  0.59009331  0.78155454  0.33505408    -0.02500
C3117       C  0.81547982  0.97310600  0.30889264    -0.09200
C3118       C  0.82890187  0.97131388  0.32720379     0.07000
C3119       C  0.85456562  0.49472077  0.33190928    -0.02900
C3120       C  0.86490848  0.52055595  0.31875982    -0.07400
C3121       C  0.84994448  0.52358046  0.30087489     0.06100
C3122       C  0.82530822  0.49919468  0.29591801    -0.02400
Br3123     Br  0.80236671  0.00193331  0.27217259    -0.02100
H3124       H  0.79606339  0.95509838  0.30486967     0.10100
H3125       H  0.88437040  0.53868420  0.32257663     0.08100
Br3126     Br  0.87724527  0.49153149  0.35569220    -0.02500
C3127       C  0.85686594  0.74580588  0.32727557    -0.09200
C3128       C  0.82768872  0.76471543  0.32305591     0.07000
C3129       C  0.80860766  0.75530960  0.30721684    -0.02900
C3130       C  0.81890324  0.72731713  0.29601689    -0.07400
C3131       C  0.84798421  0.70852936  0.30024834     0.06100
C3132       C  0.86734358  0.71802910  0.31583414    -0.02400
Br3133     Br  0.90824041  0.69415361  0.32168771    -0.02100
H3134       H  0.87136619  0.75251805  0.33958225     0.10100
H3135       H  0.80409284  0.71999447  0.28393191     0.08100
Br3136     Br  0.76743445  0.77792050  0.30055297    -0.02500
C3137       C  0.60253590  0.70112325  0.57340330    -0.09200
C3138       C  0.62897707  0.72408684  0.57646673     0.07000
C3139       C  0.62643685  0.75933651  0.57018094    -0.02900
C3140       C  0.59835725  0.77043233  0.56002358    -0.07400
C3141       C  0.57361325  0.74625360  0.55511414     0.06100
C3142       C  0.57529742  0.71160750  0.56248280    -0.02400
Br3143     Br  0.54255490  0.67677442  0.55666622    -0.02100
H3144       H  0.60382401  0.67441226  0.57887902     0.10100
H3145       H  0.59733422  0.79709045  0.55438803     0.08100
Br3146     Br  0.66246822  0.79179065  0.57271907    -0.02500
C3147       C  0.88417379  0.72219603  0.54079017    -0.09200
C3148       C  0.89963603  0.75295172  0.54678685     0.07000
C3149       C  0.88609225  0.77109194  0.56235246    -0.02900
C3150       C  0.85890031  0.75672682  0.57241295    -0.07400
C3151       C  0.84378437  0.72522739  0.56659983     0.06100
C3152       C  0.85608831  0.70892497  0.54996118    -0.02400
Br3153     Br  0.83589538  0.66958115  0.53773368    -0.02100
H3154       H  0.89372839  0.70872002  0.52841202     0.10100
H3155       H  0.84929147  0.77063968  0.58459431     0.08100
Br3156     Br  0.90273892  0.81611744  0.56961899    -0.02500
C3157       C  0.58682550  0.79079360  0.44655903    -0.09200
C3158       C  0.58424626  0.75852460  0.45629048     0.07000
C3159       C  0.60785526  0.73173800  0.45273053    -0.02900
C3160       C  0.63492584  0.73855609  0.44058362    -0.07400
C3161       C  0.63846388  0.77171689  0.43183052     0.06100
C3162       C  0.61350426  0.79744369  0.43433002    -0.02400
Br3163     Br  0.61476565  0.84220700  0.42141185    -0.02100
H3164       H  0.56836318  0.81124363  0.44887356     0.10100
H3165       H  0.65404079  0.71862237  0.43874433     0.08100
Br3166     Br  0.60472175  0.68628477  0.46473650    -0.02500
C3167       C  0.91026686  0.79570914  0.44080033    -0.09200
C3168       C  0.91246095  0.76430683  0.45130157     0.07000
C3169       C  0.88894534  0.73756951  0.44850486    -0.02900
C3170       C  0.86238878  0.74346294  0.43607516    -0.07400
C3171       C  0.85888760  0.77599495  0.42663002     0.06100
C3172       C  0.88359670  0.80182753  0.42866004    -0.02400
Br3173     Br  0.88098337  0.84687144  0.41608799    -0.02100
H3174       H  0.92833486  0.81632407  0.44290795     0.10100
H3175       H  0.84322043  0.72370401  0.43489016     0.08100
Br3176     Br  0.89098364  0.69397085  0.46250823    -0.02500
C3177       C  0.58244363  0.55703808  0.54740791    -0.09200
C3178       C  0.57637850  0.52100061  0.54828721     0.07000
C3179       C  0.59742705  0.49899303  0.55906373    -0.02900
C3180       C  0.62439570  0.51352791  0.56876809    -0.07400
C3181       C  0.63151753  0.54974691  0.56722083     0.06100
C3182       C  0.60988804  0.57146306  0.55624110    -0.02400
Br3183     Br  0.61507834  0.62089902  0.55164686    -0.02100
H3184       H  0.56649122  0.57388233  0.53884464     0.10100
H3185       H  0.64058448  0.99625351  0.57689572     0.08100
Br3186     Br  0.59093930  0.94905704  0.56003092    -0.02500
C3187       C  0.90224713  0.55755618  0.55563641    -0.09200
C3188       C  0.90378341  0.52309649  0.54885328     0.07000
C3189       C  0.87779559  0.49953968  0.55322686    -0.02900
C3190       C  0.84957764  0.51148496  0.56305580    -0.07400
C3191       C  0.84711190  0.54671079  0.56867098     0.06100
C3192       C  0.87438130  0.56933790  0.56569546    -0.02400
Br3193     Br  0.87553527  0.61605752  0.57574432    -0.02100
H3194       H  0.92244218  0.57559983  0.55264662     0.10100
H3195       H  0.82902431  0.49367750  0.56561099     0.08100
Br3196     Br  0.87967141  0.95124952  0.54557307    -0.02500
C3197       C  0.61375504  0.96043237  0.42950870    -0.09200
C3198       C  0.63693232  0.93791430  0.43844619     0.07000
C3199       C  0.63035994  0.92655787  0.45731900    -0.02900
C3200       C  0.60023483  0.93491721  0.46598168    -0.07400
C3201       C  0.57751738  0.95795202  0.45736390     0.06100
C3202       C  0.58460322  0.97124412  0.43901806    -0.02400
Br3203     Br  0.55667235  0.50597725  0.42706664    -0.02100
H3204       H  0.61859417  0.47017056  0.41526468     0.10100
H3205       H  0.59568185  0.92577103  0.48038648     0.08100
Br3206     Br  0.66266867  0.90509069  0.47386597    -0.02500
C3207       C  0.87486010  0.95497035  0.46559822    -0.09200
C3208       C  0.90174500  0.97215216  0.45681236     0.07000
C3209       C  0.90006390  0.97999906  0.43719685    -0.02900
C3210       C  0.87337079  0.96734582  0.42654521    -0.07400
C3211       C  0.84744931  0.94855321  0.43539752     0.06100
C3212       C  0.84737959  0.94461167  0.45529347    -0.02400
Br3213     Br  0.80949904  0.92829230  0.46963542    -0.02100
H3214       H  0.87498296  0.95002439  0.48075853     0.10100
H3215       H  0.87313994  0.97168105  0.41133927     0.08100
Br3216     Br  0.93259133  0.00889073  0.42454457    -0.02500
loop_ 
_geom_bond_atom_site_label_1 
_geom_bond_atom_site_label_2 
_geom_bond_distance 
_geom_bond_site_symmetry_2 
_ccdc_geom_bond_type 
N1            C6   1.354   1_565  A
N1          C809   1.354       .  A
N1           H33   1.040       .  S
N2           C10   1.349       .  A
N2         C1617   1.349       .  A
N3            C7   1.354       .  A
N3          C812   1.353       .  A
N3           H34   1.041       .  S
N4           C12   1.349       .  A
N4         C1619   1.349       .  A
C5          N805   1.354       .  A
C5           C13   1.386       .  A
C5           C21   1.415       .  A
C6           C22   1.417       .  A
C6           C14   1.389       .  A
C7           C15   1.386       .  A
C7           C24   1.415       .  A
C8          N807   1.353   1_545  A
C8           C23   1.414       .  A
C8           C16   1.387       .  A
C9         N1610   1.349   1_455  A
C9           C21   1.408       .  A
C9           C17   1.385       .  A
C10          C24   1.412       .  A
C10          C18   1.387       .  A
C11        N1612   1.349   1_455  A
C11          C19   1.387       .  A
C11          C22   1.411       .  A
C12          C20   1.386       .  A
C12          C23   1.410       .  A
C13         C818   1.370       .  A
C13          H25   1.082       .  S
C14         C817   1.370       .  A
C14          H26   1.082       .  S
C15         C820   1.374       .  A
C15          H27   1.082       .  S
C16         C819   1.374       .  A
C16          H28   1.082       .  S
C17        C1626   1.378   1_455  A
C17          H29   1.082       .  S
C18        C1625   1.378       .  A
C18          H30   1.082       .  S
C19        C1628   1.376   1_455  A
C19          H31   1.082       .  S
C20        C1627   1.376       .  A
C20          H32   1.082       .  S
C21         C789   1.490       .  S
C22         C766   1.483       .  S
C23         C776   1.484       .  S
C24         C796   1.493       .  S
N35          C40   1.352       .  A
N35          C39   1.351       .  A
N35          H67   1.040       .  S
N36          C44   1.353   1_655  A
N36        C1651   1.355       .  A
N37          C42   1.356       .  A
N37          C41   1.353       .  A
N37          H68   1.036       .  S
N38          C46   1.348   1_655  A
N38        C1653   1.349       .  A
C39          C47   1.385       .  A
C39          C55   1.412       .  A
C40          C56   1.416       .  A
C40          C48   1.388       .  A
C41          C49   1.391       .  A
C41          C58   1.426       .  A
C42          C57   1.422       .  A
C42          C50   1.385       .  A
C43        N1644   1.355       .  A
C43          C55   1.416       .  A
C43          C51   1.384       .  A
C44          C58   1.423       .  A
C44          C52   1.388       .  A
C45        N1646   1.349       .  A
C45          C53   1.386       .  A
C45          C56   1.410       .  A
C46          C54   1.387       .  A
C46          C57   1.412       .  A
C47          C48   1.373       .  A
C47          H59   1.083       .  S
C48          H60   1.082       .  S
C49          C50   1.371       .  A
C49          H61   1.080       .  S
C50          H62   1.082       .  S
C51        C1660   1.373       .  A
C51          H63   1.082       .  S
C52        C1659   1.373   1_455  A
C52          H64   1.082       .  S
C53        C1662   1.372       .  A
C53          H65   1.082       .  S
C54        C1661   1.372   1_455  A
C54          H66   1.082       .  S
C55         C736   1.491       .  S
C56         C756   1.481       .  S
C57         C746   1.488       .  S
C58         C729   1.491       .  S
C69          N87   1.354       .  A
C69         C106   1.451       .  S
C69         C799   1.475       .  S
N70          N87   1.329       .  A
N70          N92   1.318       .  A
N70        Co107   2.090       .  S
C71          N96   1.347       .  A
C71         H116   1.081       .  S
C71         C109   1.463       .  S
H72         C113   1.081       .  S
C73          N97   1.340       .  A
C73         H102   1.082       .  S
C73          C77   1.465       .  S
Co74         N92   2.066       .  S
Co74         N82   2.059       .  S
Co74        N114   2.059       .  S
Co74         N90   2.073       .  S
Co74       Cl118   2.422       .  S
N75         C113   1.349       .  A
N75          N82   1.317       .  A
N75         Co76   2.101       .  S
Co76         N79   2.063       .  S
Co76         N96   2.086       .  S
Co76         N83   2.088       .  S
Co76       Cl118   2.465       .  S
C77         N115   1.346       .  A
C77         C716   1.465       .  S
N78          N85   1.320       .  A
N78         N108   1.323       .  A
N78        Co111   2.085       .  S
N79          N97   1.318       .  A
N79         N115   1.320       .  A
N80         C109   1.344       .  A
N80          N90   1.319       .  A
H81         C106   1.081       .  S
N82         N103   1.318       .  A
N83         N101   1.321       .  A
N83          N88   1.323       .  A
C84          N88   1.351       .  A
C84         C112   1.465       .  S
C84         C696   1.471       .  S
N85         C100   1.344       .  A
N85        Co107   2.101       .  S
C86         N114   1.328       .  A
C86         H120   1.077       .  S
C86          C89   1.450       .  S
C89         N110   1.360       .  A
C89         C786   1.486       .  S
N90          N96   1.317       .  A
N91         C117   1.342       .  A
N91          N93   1.321       .  A
N91        Co107   2.086       .  S
N92         C106   1.331       .  A
N93         N121   1.326       .  A
N93        Co111   2.101       .  S
H94         C117   1.082       .  S
H95         C112   1.082       .  S
N97        Co111   2.089       .  S
N98         N110   1.332       .  A
N98         N114   1.318       .  A
N98        Co107   2.110       .  S
C99         N103   1.342       .  A
C99         C113   1.466       .  S
C99         C759   1.469       .  S
C100        H104   1.081       .  S
C100        C119   1.470       .  S
N101        C112   1.341       .  A
N101       Co111   2.094       .  S
C105        N121   1.354       .  A
C105        C117   1.462       .  S
C105        C686   1.479       .  S
Co107      Cl118   2.473       .  S
N108        C119   1.351       .  A
C109        C749   1.469       .  S
Co111      Cl118   2.436       .  S
C119        C706   1.484       .  S
C122        N140   1.350       .  A
C122        C159   1.455       .  S
C122        C779   1.471       .  S
N123        N140   1.327       .  A
N123        N145   1.321       .  A
N123       Co160   2.088       .  S
C124        N149   1.342       .  A
C124        H169   1.081       .  S
C124        C162   1.456       .  S
H125        C166   1.081       .  S
C126        N150   1.341       .  A
C126        H155   1.082       .  S
C126        C130   1.468       .  S
Co127       N145   2.077       .  S
Co127       N135   2.079       .  S
Co127       N167   2.057       .  S
Co127       N143   2.091       .  S
Co127      Cl171   2.432       .  S
N128        C166   1.347       .  A
N128        N135   1.317       .  A
N128       Co129   2.090       .  S
Co129       N132   2.073       .  S
Co129       N149   2.076       .  S
Co129       N136   2.090       .  S
Co129      Cl171   2.465       .  S
C130        N168   1.350       .  A
C130        C676   1.478       .  S
N131        N138   1.319       .  A
N131        N161   1.320       .  A
N131       Co164   2.070       .  S
N132        N150   1.318       .  A
N132        N168   1.323       .  A
N133        C162   1.350       .  A
N133        N143   1.324       .  A
H134        C159   1.079       .  S
N135        N156   1.320       .  A
N136        N154   1.317       .  A
N136        N141   1.324       .  A
C137        N141   1.353       .  A
C137        C165   1.461       .  S
C137        C656   1.473       .  S
N138        C153   1.342       .  A
N138       Co160   2.095       .  S
C139        N167   1.328       .  A
C139        H173   1.078       .  S
C139        C142   1.453       .  S
C142        N163   1.361       .  A
C142        C769   1.490       .  S
N143        N149   1.320       .  A
N144        C170   1.341       .  A
N144        N146   1.319       .  A
N144       Co160   2.080       .  S
N145        C159   1.335       .  A
N146        N174   1.322       .  A
N146       Co164   2.090       .  S
H147        C170   1.082       .  S
H148        C165   1.082       .  S
N150       Co164   2.094       .  S
N151        N163   1.331       .  A
N151        N167   1.317       .  A
N151       Co160   2.109       .  S
C152        N156   1.347       .  A
C152        C166   1.470       .  S
C152        C739   1.492       .  S
C153        H157   1.081       .  S
C153        C172   1.469       .  S
N154        C165   1.336       .  A
N154       Co164   2.069       .  S
C158        N174   1.352       .  A
C158        C170   1.464       .  S
C158        C646   1.477       .  S
Co160      Cl171   2.466       .  S
N161        C172   1.349       .  A
C162        C726   1.471       .  S
Co164      Cl171   2.428       .  S
C172        C666   1.479       .  S
N175        C179   1.355       .  A
N175        C984   1.355   1_554  A
N175        H207   1.041       .  S
N176        C183   1.347       .  A
N176        C184   1.349       .  A
N177        C181   1.355       .  A
N177        C986   1.353   1_554  A
N177        H208   1.041       .  S
N178        C185   1.358       .  A
N178        C186   1.357       .  A
C179        C187   1.387       .  A
C179        C195   1.418       .  A
C180        N979   1.355   1_556  A
C180        C196   1.417       .  A
C180        C992   1.387   1_545  A
C181        C189   1.386       .  A
C181        C198   1.415       .  A
C182        N981   1.353   1_566  A
C182        C197   1.418   1_565  A
C182        C190   1.388       .  A
C183        C195   1.408       .  A
C183        C191   1.386       .  A
C184        C198   1.406       .  A
C184        C192   1.385       .  A
C185        C193   1.385       .  A
C185        C196   1.425       .  A
C186        C194   1.388       .  A
C186        C197   1.429       .  A
C187        C188   1.374   1_554  A
C187        H199   1.082       .  S
C188        C984   1.387       .  A
C188       H1004   1.082       .  S
C189        C994   1.376   1_554  A
C189        H201   1.083       .  S
C190        C993   1.376   1_556  A
C190        H202   1.082       .  S
C191        C192   1.374       .  A
C191        H203   1.082       .  S
C192        H204   1.082       .  S
C193        C194   1.384       .  A
C193        H205   1.082       .  S
C194        H206   1.082       .  S
C195        C616   1.485       .  S
C196        C639   1.508       .  S
C197        C626   1.508       .  S
C198        C606   1.485       .  S
H200        C992   1.082       .  S
N209        C214   1.353       .  A
N209        C213   1.354   1_554  A
N209        H241   1.035       .  S
N210        C217   1.353       .  A
N210        C218   1.353       .  A
N211        C216   1.353       .  A
N211        C215   1.352   1_554  A
N211        H242   1.037   1_554  S
N212        C219   1.348       .  A
N212        C220   1.349       .  A
C213        C221   1.391       .  A
C213        C229   1.421       .  A
C214        C230   1.412       .  A
C214        C222   1.385       .  A
C215        C223   1.391       .  A
C215        C232   1.417       .  A
C216        C231   1.410       .  A
C216        C224   1.384       .  A
C217        C229   1.419       .  A
C217        C225   1.386       .  A
C218        C232   1.421       .  A
C218        C226   1.387       .  A
C219        C227   1.386       .  A
C219        C230   1.405       .  A
C220        C228   1.386       .  A
C220        C231   1.406       .  A
C221        C222   1.368   1_556  A
C221        H233   1.082       .  S
C222        H234   1.082       .  S
C223        C224   1.371   1_556  A
C223        H235   1.082       .  S
C224        H236   1.083       .  S
C225        C226   1.379       .  A
C225        H237   1.082       .  S
C226        H238   1.082       .  S
C227        C228   1.369       .  A
C227        H239   1.082       .  S
C228        H240   1.082       .  S
C229        C586   1.490       .  S
C230        C566   1.476       .  S
C231        C579   1.480       .  S
C232        C599   1.489       .  S
C243        N261   1.337       .  A
C243        C280   1.485       .  S
C243        C636   1.491       .  S
N244        N261   1.320       .  A
N244        N266   1.323       .  A
N244       Co281   2.068       .  S
C245        N270   1.351       .  A
C245        H290   1.078       .  S
C245        C283   1.483       .  S
H246        C287   1.082       .  S
C247        N271   1.355       .  A
C247        H276   1.081       .  S
C247        C251   1.479       .  S
Co248       N266   2.145       .  S
Co248       N288   2.065       .  S
Co248      N1864   2.105       .  S
Co248      N1872   2.089       .  S
Co248      Cl292   2.458       .  S
N249        C287   1.333       .  A
N249        N256   1.323       .  A
N249       Co250   2.079       .  S
Co250       N253   2.060       .  S
Co250       N270   2.105       .  S
Co250       N257   2.123       .  S
Co250     Cl1900   2.446   1_455  S
C251        N289   1.337       .  A
C251        C589   1.477       .  S
N252        N259   1.318       .  A
N252        N282   1.336       .  A
N252       Co285   2.117       .  S
N253        N271   1.323       .  A
N253        N289   1.314       .  A
N254        C283   1.347       .  A
N254        N264   1.318       .  A
H255        C280   1.081       .  S
N256        N277   1.334       .  A
N256      Co1856   2.105   1_455  S
N257        N275   1.318       .  A
N257        N262   1.336       .  A
C258        N262   1.366       .  A
C258        C286   1.448       .  S
C258        C536   1.498       .  S
N259        C274   1.323       .  A
N259       Co281   2.052       .  S
C260        N288   1.331       .  A
C260        H294   1.082       .  S
C260        C263   1.447       .  S
C263        N284   1.358       .  A
C263        C549   1.477       .  S
N264        N270   1.321       .  A
N264      Co1856   2.089   1_455  S
N265        C291   1.349       .  A
N265        N267   1.320       .  A
N265       Co281   2.096       .  S
N266        C280   1.360       .  A
N267        N295   1.320       .  A
N267       Co285   2.081       .  S
H268        C291   1.081       .  S
H269        C286   1.075       .  S
N271      Co1893   2.120   1_455  S
N272        N284   1.330       .  A
N272        N288   1.318       .  A
N272       Co281   2.091       .  S
C273        N277   1.359       .  A
C273        C287   1.443       .  S
C273        C629   1.477       .  S
C274        H278   1.080       .  S
C274        C293   1.446       .  S
N275        C286   1.326       .  A
N275      Co1893   2.057   1_455  S
C279        N295   1.343       .  A
C279        C291   1.471       .  S
C279        C556   1.479       .  S
Co281      Cl292   2.446       .  S
N282        C293   1.366       .  A
C283        C526   1.502       .  S
Co285      N1879   2.120       .  S
Co285      N1883   2.057       .  S
Co285      Cl292   2.458       .  S
Cl292     Co1858   2.446       .  S
C293        C596   1.494       .  S
N296        C301   1.351       .  A
N296        C300   1.352       .  A
N296        H328   1.041       .  S
N297        C304   1.350       .  A
N297        C305   1.351       .  A
N298        C303   1.355       .  A
N298        C302   1.355       .  A
N298        H329   1.040       .  S
N299        C306   1.351       .  A
N299        C307   1.351       .  A
C300        C308   1.387       .  A
C300        C316   1.412       .  A
C301        C317   1.412       .  A
C301        C309   1.387       .  A
C302        C310   1.385       .  A
C302        C319   1.419       .  A
C303        C318   1.425       .  A
C303        C311   1.389       .  A
C304        C316   1.411       .  A
C304        C312   1.386       .  A
C305        C319   1.412       .  A
C305        C313   1.387       .  A
C306        C314   1.384       .  A
C306        C317   1.410       .  A
C307        C315   1.388       .  A
C307        C318   1.416       .  A
C308        C309   1.378       .  A
C308        H320   1.082       .  S
C309        H321   1.082       .  S
C310        C311   1.381       .  A
C310        H322   1.082       .  S
C311        H323   1.082       .  S
C312        C313   1.373       .  A
C312       H1128   1.082       .  S
C313       H1129   1.082       .  S
C314        C315   1.374       .  A
C314        H326   1.082       .  S
C315        H327   1.082       .  S
C316        C649   1.484       .  S
C317        C659   1.486       .  S
C318        C539   1.504       .  S
C319        C529   1.494       .  S
H324       C1116   1.082   1_545  S
H325       C1117   1.082   1_545  S
N330        C335   1.351       .  A
N330        C334   1.351       .  A
N330        H362   1.040       .  S
N331        C338   1.350       .  A
N331        C339   1.351       .  A
N332        C337   1.352       .  A
N332        C336   1.353       .  A
N332        H363   1.039       .  S
N333        C340   1.352       .  A
N333        C341   1.351       .  A
C334        C342   1.387       .  A
C334        C350   1.413       .  A
C335        C351   1.412       .  A
C335        C343   1.388       .  A
C336        C344   1.387       .  A
C336        C353   1.414       .  A
C337        C352   1.413       .  A
C337        C345   1.387       .  A
C338        C350   1.412       .  A
C338        C346   1.387       .  A
C339        C353   1.411       .  A
C339        C347   1.385       .  A
C340        C348   1.386       .  A
C340        C351   1.414       .  A
C341        C349   1.386       .  A
C341        C352   1.414       .  A
C342        C343   1.375       .  A
C342       H1158   1.082       .  S
C343       H1159   1.082       .  S
C344        C345   1.374       .  A
C344        H356   1.082       .  S
C345        H357   1.082       .  S
C346        C347   1.374       .  A
C346        H358   1.082       .  S
C347        H359   1.082       .  S
C348        C349   1.376       .  A
C348        H360   1.082       .  S
C349        H361   1.082       .  S
C350        C669   1.486       .  S
C351        C546   1.484       .  S
C352        C559   1.485       .  S
C353        C679   1.489       .  S
H354       C1146   1.082   1_545  S
H355       C1147   1.082   1_545  S
N364        C369   1.353       .  A
N364        C368   1.354       .  A
N364        H396   1.038       .  S
N365        C372   1.351       .  A
N365        C373   1.352       .  A
N366        C371   1.354       .  A
N366        C370   1.352       .  A
N366        H397   1.037       .  S
N367        C374   1.352       .  A
N367        C375   1.353       .  A
C368        C376   1.387       .  A
C368        C384   1.416       .  A
C369        C385   1.418       .  A
C369        C377   1.388       .  A
C370        C378   1.387       .  A
C370        C387   1.414       .  A
C371        C386   1.415       .  A
C371        C379   1.387       .  A
C372        C384   1.414       .  A
C372        C380   1.387       .  A
C373        C387   1.412       .  A
C373        C381   1.386       .  A
C374        C382   1.386       .  A
C374        C385   1.414       .  A
C375        C383   1.386       .  A
C375        C386   1.415       .  A
C376        C377   1.376       .  A
C376        H388   1.083       .  S
C377        H389   1.082       .  S
C378        C379   1.375       .  A
C378        H390   1.082       .  S
C379        H391   1.082       .  S
C380        C381   1.373       .  A
C380        H392   1.082       .  S
C381        H393   1.082       .  S
C382        C383   1.373       .  A
C382       H1198   1.082   1_545  S
C383       H1199   1.082   1_545  S
C384        C519   1.487       .  S
C385        C509   1.488       .  S
C386        C689   1.489       .  S
C387        C699   1.483       .  S
H394       C1186   1.082       .  S
H395       C1187   1.082       .  S
N398        C403   1.352       .  A
N398        C402   1.347       .  A
N398        H430   1.042       .  S
N399        C406   1.346       .  A
N399        C407   1.350       .  A
N400        C405   1.347       .  A
N400        C404   1.354       .  A
N400        H431   1.044       .  S
N401        C408   1.353       .  A
N401        C409   1.348       .  A
C402        C410   1.389       .  A
C402        C418   1.410       .  A
C403        C419   1.409       .  A
C403        C411   1.385       .  A
C404        C412   1.386       .  A
C404        C421   1.413       .  A
C405        C420   1.409       .  A
C405        C413   1.387       .  A
C406        C418   1.410       .  A
C406        C414   1.388       .  A
C407        C421   1.410       .  A
C407        C415   1.385       .  A
C408        C416   1.385       .  A
C408        C419   1.411       .  A
C409        C417   1.387       .  A
C409        C420   1.411       .  A
C410        C411   1.377       .  A
C410       H1226   1.082   1_545  S
C411       H1227   1.082   1_545  S
C412        C413   1.375       .  A
C412        H424   1.082       .  S
C413        H425   1.082       .  S
C414        C415   1.375       .  A
C414        H426   1.082       .  S
C415        H427   1.082       .  S
C416        C417   1.375       .  A
C416        H428   1.082       .  S
C417        H429   1.082       .  S
C418        C486   1.472       .  S
C419        C709   1.491       .  S
C420        C719   1.472       .  S
C421        C496   1.492       .  S
H422       C1214   1.082       .  S
H423       C1215   1.082       .  S
C432        N450   1.353       .  A
C432        C469   1.452       .  S
C432        C619   1.472       .  S
N433        N450   1.329       .  A
N433        N455   1.318       .  A
N433       Co470   2.092       .  S
C434       N2067   1.344       .  A
C434        H479   1.078       .  S
C434        C472   1.471       .  S
H435        C476   1.081       .  S
C436        N460   1.340       .  A
C436        H465   1.082       .  S
C436        C440   1.461       .  S
Co437       N455   2.069       .  S
Co437       N445   2.067       .  S
Co437       N477   2.071       .  S
Co437       N453   2.063       .  S
Co437      Cl481   2.434       .  S
N438        C476   1.344       .  A
N438        N445   1.318       .  A
N438       Co439   2.092       .  S
Co439       N442   2.083       .  S
Co439       N459   2.084       .  S
Co439      N2054   2.078       .  S
Co439      Cl481   2.458       .  S
C440        N478   1.352       .  A
C440        C499   1.476       .  S
N441        N448   1.318       .  A
N441        N471   1.321       .  A
N441       Co474   2.076       .  S
N442        N460   1.319       .  A
N442        N478   1.324       .  A
N443        C472   1.347       .  A
N443       N2061   1.316       .  A
H444        C469   1.078       .  S
N445        N466   1.318       .  A
N446        N464   1.319       .  A
N446        N451   1.323       .  A
N446      Co2047   2.078   1_455  S
C447        N451   1.350       .  A
C447        C475   1.462       .  S
C447        C516   1.473       .  S
N448        C463   1.335       .  A
N448       Co470   2.074       .  S
C449       N2085   1.334       .  A
C449        H483   1.081       .  S
C449        C452   1.451       .  S
C452        N473   1.353       .  A
C452        C609   1.472       .  S
N453        N459   1.316       .  A
N453       N2051   1.316       .  A
N454        C480   1.342       .  A
N454        N456   1.320       .  A
N454      Co2078   2.094   1_455  S
N455        C469   1.334       .  A
N456        N484   1.322       .  A
N456      Co2082   2.077   1_455  S
H457        C480   1.082       .  S
H458        C475   1.082       .  S
N459       C2042   1.344       .  A
N460       Co474   2.081       .  S
N461        N477   1.319       .  A
N461       N2081   1.329       .  A
N461       Co470   2.092       .  S
C462        N466   1.344       .  A
C462        C476   1.469       .  S
C462        C576   1.484       .  S
C463        H467   1.082       .  S
C463        C482   1.460       .  S
N464        C475   1.338       .  A
N464      Co2082   2.081   1_455  S
C468        N484   1.348       .  A
C468        C480   1.465       .  S
C468        C506   1.480       .  S
Co470      N2062   2.094       .  S
Co470      Cl481   2.456       .  S
N471        C482   1.350       .  A
C472        C569   1.485       .  S
N473       N2069   1.329       .  A
Co474      N2064   2.077       .  S
Co474      N2072   2.081       .  S
Co474      Cl481   2.433       .  S
N477       C2057   1.334       .  A
C482        C489   1.463       .  S
C485        C486   1.397       .  A
C485       C1294   1.389       .  A
C485        H492   1.084       .  S
C486        C487   1.407       .  A
C487       C1292   1.397   1_545  A
C487       Br494   1.919   1_545  S
C488        C489   1.401       .  A
C488       C1291   1.397       .  A
C488        H493   1.084       .  S
C489        C490   1.414       .  A
C490       C1289   1.389       .  A
C490       Br491   1.923       .  S
C495        C496   1.406       .  A
C495        C500   1.401       .  A
C495        H502   1.083       .  S
C496        C497   1.411       .  A
C497        C498   1.399       .  A
C497       Br504   1.921       .  S
C498        C499   1.404       .  A
C498        H503   1.084       .  S
C499        C500   1.407       .  A
C500       Br501   1.919       .  S
C505        C506   1.404       .  A
C505       C1314   1.400       .  A
C505        H512   1.084       .  S
C506        C507   1.417       .  A
C507       C1312   1.398       .  A
C507      Br2122   1.922       .  S
C508        C509   1.401   1_565  A
C508       C1311   1.398       .  A
C508        H513   1.084   1_565  S
C509        C510   1.407       .  A
C510       C1309   1.400   1_545  A
C510       Br511   1.917       .  S
Br514      C2115   1.922       .  S
C515        C516   1.404       .  A
C515        C520   1.397       .  A
C515        H522   1.083       .  S
C516        C517   1.407       .  A
C517        C518   1.400       .  A
C517       Br524   1.918       .  S
C518        C519   1.403       .  A
C518        H523   1.083       .  S
C519        C520   1.409       .  A
C520       Br521   1.919       .  S
C525        C526   1.412   1_565  A
C525        C530   1.394       .  A
C525        H532   1.083       .  S
C526        C527   1.420       .  A
C527       C1332   1.411   1_545  A
C527       Br534   1.915       .  S
C528        C529   1.406       .  A
C528       C1331   1.411       .  A
C528        H533   1.083       .  S
C529       C1334   1.403       .  A
C530       C1333   1.403       .  A
C530      Br2139   1.921       .  S
Br531      C2138   1.921       .  S
C535        C536   1.407       .  A
C535        C540   1.410       .  A
C535        H542   1.083       .  S
C536        C537   1.423       .  A
C537        C538   1.393       .  A
C537       Br544   1.923       .  S
C538        C539   1.398       .  A
C538        H543   1.084       .  S
C539        C540   1.417       .  A
C540       Br541   1.919       .  S
C545        C550   1.403   1_565  A
C545       C1350   1.404       .  A
C545        H552   1.083       .  S
C546        C547   1.404       .  A
C546       C1349   1.404       .  A
C547        C548   1.395       .  A
C547       Br554   1.919       .  S
C548       C1353   1.406       .  A
C548        H553   1.084       .  S
C549        C550   1.410       .  A
C549       C1352   1.406       .  A
C550       Br551   1.918       .  S
C555        C556   1.405       .  A
C555        C560   1.404       .  A
C555        H562   1.083       .  S
C556        C557   1.414       .  A
C557        C558   1.396       .  A
C557       Br564   1.919       .  S
C558        C559   1.398       .  A
C558        H563   1.084       .  S
C559        C560   1.409       .  A
C560       Br561   1.917       .  S
C565        C566   1.401       .  A
C565        C570   1.402       .  A
C565        H572   1.084       .  S
C566        C567   1.399       .  A
C567        C568   1.387       .  A
C567       Br574   1.921       .  S
C568        C569   1.410       .  A
C568        H573   1.083       .  S
C569        C570   1.418       .  A
C570       Br571   1.916       .  S
C575        C576   1.409       .  A
C575        C580   1.401       .  A
C575        H582   1.082       .  S
C576        C577   1.420       .  A
C577        C578   1.390       .  A
C577       Br584   1.922       .  S
C578        C579   1.395       .  A
C578        H583   1.084       .  S
C579        C580   1.406       .  A
C580       Br581   1.918       .  S
C585        C586   1.398       .  A
C585        C590   1.390       .  A
C585        H592   1.084       .  S
C586        C587   1.412       .  A
C587        C588   1.410       .  A
C587       Br594   1.915       .  S
C588        C589   1.406       .  A
C588        H593   1.083       .  S
C589        C590   1.411       .  A
C590       Br591   1.917       .  S
C595        C596   1.412       .  A
C595        C600   1.390       .  A
C595        H602   1.080       .  S
C596        C597   1.413       .  A
C597        C598   1.409       .  A
C597       Br604   1.917       .  S
C598        C599   1.409       .  A
C598        H603   1.083       .  S
C599        C600   1.401       .  A
C600       Br601   1.922       .  S
C605        C606   1.404       .  A
C605        C610   1.403       .  A
C605        H612   1.083       .  S
C606        C607   1.406       .  A
C607        C608   1.395       .  A
C607       Br614   1.916       .  S
C608        C609   1.403       .  A
C608        H613   1.084       .  S
C609        C610   1.408       .  A
C610       Br611   1.917       .  S
C615        C616   1.401       .  A
C615        C620   1.395       .  A
C615        H622   1.084       .  S
C616        C617   1.409       .  A
C617        C618   1.403       .  A
C617       Br624   1.918       .  S
C618        C619   1.403       .  A
C618        H623   1.083       .  S
C619        C620   1.410       .  A
C620       Br621   1.920       .  S
C625        C626   1.412       .  A
C625        C630   1.402       .  A
C625        H632   1.083       .  S
C626        C627   1.414       .  A
C627        C628   1.408       .  A
C627      Br1438   1.919   1_545  S
C628        C629   1.406       .  A
C628        H633   1.083   1_545  S
C629        C630   1.402       .  A
C630       Br631   1.919       .  S
Br634      C1431   1.919       .  S
C635        C636   1.406       .  A
C635        C640   1.406       .  A
C635        H642   1.084       .  S
C636        C637   1.412       .  A
C637        C638   1.412       .  A
C637      Br1448   1.916   1_545  S
C638        C639   1.408       .  A
C638       H1447   1.083   1_545  S
C639        C640   1.414       .  A
C640       Br641   1.920       .  S
H643       C1442   1.083       .  S
Br644      C1441   1.916       .  S
C645        C646   1.405       .  A
C645       C1454   1.395   1_545  A
C645        H652   1.083       .  S
C646       C1451   1.409   1_545  A
C647        C648   1.402       .  A
C647       C1450   1.409       .  A
C647       Br654   1.918       .  S
C648        C649   1.404       .  A
C648        H653   1.083       .  S
C649        C650   1.406       .  A
C650       C1449   1.395       .  A
C650      Br1455   1.918       .  S
Br651      C1454   1.918       .  S
C655        C656   1.404       .  A
C655        C660   1.395       .  A
C655        H662   1.083       .  S
C656        C657   1.407       .  A
C657        C658   1.401       .  A
C657       Br664   1.919       .  S
C658        C659   1.405       .  A
C658        H663   1.083       .  S
C659        C660   1.408       .  A
C660       Br661   1.918       .  S
C665        C666   1.407       .  A
C665       C1474   1.395   1_545  A
C665        H672   1.083       .  S
C666        C667   1.409   1_545  A
C667       C1472   1.399       .  A
C667       Br674   1.918       .  S
C668        C669   1.404       .  A
C668       C1471   1.399       .  A
C668        H673   1.083       .  S
C669        C670   1.408       .  A
C670       C1469   1.395       .  A
C670       Br671   1.921       .  S
C675        C676   1.404       .  A
C675        C680   1.397       .  A
C675        H682   1.083       .  S
C676        C677   1.410       .  A
C677        C678   1.401       .  A
C677       Br684   1.919       .  S
C678        C679   1.404       .  A
C678        H683   1.083       .  S
C679        C680   1.408       .  A
C680       Br681   1.916       .  S
C685        C686   1.403       .  A
C685        C690   1.404       .  A
C685        H692   1.083       .  S
C686       C1491   1.410       .  A
C687        C688   1.399   1_565  A
C687       C1490   1.410       .  A
C687       Br694   1.914       .  S
C688        C689   1.401       .  A
C688        H693   1.084       .  S
C689       C1494   1.409       .  A
C690       C1493   1.409       .  A
C690       Br691   1.918       .  S
C695        C696   1.402       .  A
C695        C700   1.397       .  A
C695        H702   1.081       .  S
C696        C697   1.406       .  A
C697        C698   1.402       .  A
C697       Br704   1.916       .  S
C698        C699   1.404       .  A
C698        H703   1.083       .  S
C699        C700   1.407       .  A
C700       Br701   1.919       .  S
C705        C706   1.405       .  A
C705       C1514   1.397       .  A
C705        H712   1.083       .  S
C706       C1511   1.411       .  A
C707        C708   1.404   1_565  A
C707       C1510   1.411       .  A
C707       Br714   1.918       .  S
C708        C709   1.405       .  A
C708        H713   1.083       .  S
C709        C710   1.409   1_545  A
C710       C1509   1.397       .  A
C710      Br1515   1.920   1_565  S
Br711      C1514   1.920       .  S
C715        C716   1.403       .  A
C715        C720   1.397       .  A
C715        H722   1.084       .  S
C716        C717   1.411       .  A
C717        C718   1.392       .  A
C717       Br724   1.919       .  S
C718        C719   1.398       .  A
C718        H723   1.084       .  S
C719        C720   1.404       .  A
C720       Br721   1.918       .  S
C725        C726   1.399       .  A
C725        C730   1.397       .  A
C725        H732   1.082       .  S
C726        C727   1.408       .  A
C727        C728   1.401       .  A
C727       Br734   1.919       .  S
C728        C729   1.406       .  A
C728        H733   1.083       .  S
C729        C730   1.410       .  A
C730       Br731   1.922       .  S
C735        C736   1.398       .  A
C735        C740   1.391       .  A
C735        H742   1.084       .  S
C736        C737   1.408       .  A
C737        C738   1.408       .  A
C737       Br744   1.917       .  S
C738        C739   1.412       .  A
C738        H743   1.082       .  S
C739        C740   1.418       .  A
C740       Br741   1.922       .  S
C745        C746   1.401       .  A
C745        C750   1.393       .  A
C745        H752   1.084       .  S
C746        C747   1.410       .  A
C747        C748   1.403       .  A
C747       Br754   1.917       .  S
C748        C749   1.403       .  A
C748        H753   1.083       .  S
C749        C750   1.408       .  A
C750       Br751   1.919       .  S
C755        C756   1.398       .  A
C755        C760   1.394       .  A
C755        H762   1.084       .  S
C756        C757   1.408       .  A
C757        C758   1.402       .  A
C757       Br764   1.919       .  S
C758        C759   1.403       .  A
C758        H763   1.083       .  S
C759        C760   1.410       .  A
C760       Br761   1.919       .  S
C765        C766   1.392       .  A
C765        C770   1.390       .  A
C765        H772   1.085       .  S
C766        C767   1.406   1_545  A
C767        C768   1.406   1_565  A
C767      Br1578   1.916       .  S
C768        C769   1.409       .  A
C768       H1577   1.083   1_545  S
C769        C770   1.422       .  A
C770       Br771   1.913       .  S
H773       C1572   1.083       .  S
Br774      C1571   1.916       .  S
C775        C776   1.400       .  A
C775        C780   1.396       .  A
C775        H782   1.083       .  S
C776        C777   1.409   1_545  A
C777        C778   1.401   1_565  A
C777      Br1588   1.919       .  S
C778        C779   1.403       .  A
C778        H783   1.084   1_545  S
C779        C780   1.410       .  A
C780       Br781   1.920       .  S
Br784      C1581   1.919       .  S
C785        C786   1.408       .  A
C785        C790   1.407       .  A
C785       H1596   1.083       .  S
C786        C787   1.418       .  A
C787        C788   1.389       .  A
C787       Br794   1.924       .  S
C788        C789   1.398       .  A
C788        H793   1.084       .  S
C789        C790   1.411       .  A
C790      Br1595   1.918       .  S
Br791      C1594   1.918   1_545  S
H792       C1589   1.083       .  S
C795        C796   1.402       .  A
C795        C800   1.389       .  A
C795        H802   1.084       .  S
C796        C797   1.414       .  A
C797        C798   1.406       .  A
C797       Br804   1.920       .  S
C798        C799   1.405       .  A
C798        H803   1.083       .  S
C799        C800   1.410       .  A
C800       Br801   1.923       .  S
N805        C810   1.354       .  A
N805        H837   1.040       .  S
N806       C2421   1.349       .  A
N806        C814   1.349       .  A
N807        C811   1.354       .  A
N807        H838   1.041       .  S
N808       C2423   1.349       .  A
N808        C816   1.349       .  A
C809        C817   1.386   1_565  A
C809        C825   1.415       .  A
C810        C826   1.417       .  A
C810        C818   1.389       .  A
C811        C819   1.386   1_565  A
C811        C828   1.415       .  A
C812        C827   1.414       .  A
C812        C820   1.387       .  A
C813       N2414   1.349   1_455  A
C813        C825   1.408       .  A
C813        C821   1.385       .  A
C814        C828   1.412       .  A
C814        C822   1.387       .  A
C815       N2416   1.349   1_455  A
C815        C823   1.387       .  A
C815        C826   1.411       .  A
C816        C824   1.386       .  A
C816        C827   1.410       .  A
C817        H829   1.082       .  S
C818        H830   1.082       .  S
C819        H831   1.082       .  S
C820        H832   1.082       .  S
C821       C2430   1.378   1_455  A
C821        H833   1.082       .  S
C822       C2429   1.378       .  A
C822        H834   1.082       .  S
C823       C2432   1.376   1_455  A
C823        H835   1.082       .  S
C824       C2431   1.376       .  A
C824        H836   1.082       .  S
C825       C1593   1.490       .  S
C826       C1570   1.483       .  S
C827       C1580   1.484       .  S
C828       C1600   1.493       .  S
N839        C844   1.352       .  A
N839        C843   1.351       .  A
N839        H871   1.040       .  S
N840       C2455   1.355       .  A
N840        C848   1.353   1_655  A
N841        C846   1.356       .  A
N841        C845   1.353       .  A
N841        H872   1.036       .  S
N842       C2457   1.349       .  A
N842        C850   1.348   1_655  A
C843        C851   1.385       .  A
C843        C859   1.412       .  A
C844        C860   1.416       .  A
C844        C852   1.388       .  A
C845        C853   1.391       .  A
C845        C862   1.426       .  A
C846        C861   1.422       .  A
C846        C854   1.385       .  A
C847       N2448   1.355       .  A
C847        C859   1.416       .  A
C847        C855   1.384       .  A
C848        C862   1.423       .  A
C848        C856   1.388       .  A
C849       N2450   1.349       .  A
C849        C857   1.386       .  A
C849        C860   1.410       .  A
C850        C858   1.387       .  A
C850        C861   1.412       .  A
C851        C852   1.373       .  A
C851        H863   1.083       .  S
C852        H864   1.082       .  S
C853        C854   1.371       .  A
C853        H865   1.080       .  S
C854        H866   1.082       .  S
C855       C2464   1.373       .  A
C855        H867   1.082       .  S
C856       C2463   1.373   1_455  A
C856        H868   1.082       .  S
C857       C2466   1.372       .  A
C857        H869   1.082       .  S
C858       C2465   1.372   1_455  A
C858        H870   1.082       .  S
C859       C1540   1.491       .  S
C860       C1560   1.481       .  S
C861       C1550   1.488       .  S
C862       C1533   1.491       .  S
C873        N891   1.354       .  A
C873        C910   1.451       .  S
C873       C1603   1.475       .  S
N874        N891   1.329       .  A
N874        N896   1.318       .  A
N874       Co911   2.090       .  S
C875        N900   1.347       .  A
C875        H920   1.081       .  S
C875        C913   1.463       .  S
H876        C917   1.081       .  S
C877        N901   1.340       .  A
C877        H906   1.082       .  S
C877        C881   1.465       .  S
Co878       N896   2.066       .  S
Co878       N886   2.058       .  S
Co878       N918   2.059       .  S
Co878       N894   2.073       .  S
Co878      Cl922   2.422       .  S
N879        C917   1.349       .  A
N879        N886   1.317       .  A
N879       Co880   2.101       .  S
Co880       N883   2.063       .  S
Co880       N900   2.086       .  S
Co880       N887   2.088       .  S
Co880      Cl922   2.465       .  S
C881        N919   1.346       .  A
C881       C1520   1.465       .  S
N882        N889   1.320       .  A
N882        N912   1.323       .  A
N882       Co915   2.085       .  S
N883        N901   1.318       .  A
N883        N919   1.320       .  A
N884        C913   1.344       .  A
N884        N894   1.319       .  A
H885        C910   1.081       .  S
N886        N907   1.318       .  A
N887        N905   1.321       .  A
N887        N892   1.323       .  A
C888        N892   1.351       .  A
C888        C916   1.465       .  S
C888       C1500   1.471       .  S
N889        C904   1.344       .  A
N889       Co911   2.101       .  S
C890        N918   1.328       .  A
C890        H924   1.077       .  S
C890        C893   1.450       .  S
C893        N914   1.360       .  A
C893       C1590   1.486       .  S
N894        N900   1.317       .  A
N895        C921   1.342       .  A
N895        N897   1.321       .  A
N895       Co911   2.086       .  S
N896        C910   1.331       .  A
N897        N925   1.326       .  A
N897       Co915   2.101       .  S
H898        C921   1.082       .  S
H899        C916   1.082       .  S
N901       Co915   2.089       .  S
N902        N914   1.332       .  A
N902        N918   1.318       .  A
N902       Co911   2.110       .  S
C903        N907   1.342       .  A
C903        C917   1.466       .  S
C903       C1563   1.469       .  S
C904        H908   1.081       .  S
C904        C923   1.470       .  S
N905        C916   1.341       .  A
N905       Co915   2.094       .  S
C909        N925   1.354       .  A
C909        C921   1.462       .  S
C909       C1490   1.479       .  S
Co911      Cl922   2.473       .  S
N912        C923   1.351       .  A
C913       C1553   1.469       .  S
Co915      Cl922   2.436       .  S
C923       C1510   1.484       .  S
C926        N944   1.350       .  A
C926        C963   1.455       .  S
C926       C1583   1.471       .  S
N927        N944   1.327       .  A
N927        N949   1.321       .  A
N927       Co964   2.088       .  S
C928        N953   1.342       .  A
C928        H973   1.081       .  S
C928        C966   1.456       .  S
H929        C970   1.081       .  S
C930        N954   1.341       .  A
C930        H959   1.082       .  S
C930        C934   1.468       .  S
Co931       N949   2.077       .  S
Co931       N939   2.079       .  S
Co931       N971   2.057       .  S
Co931       N947   2.091       .  S
Co931      Cl975   2.432       .  S
N932        C970   1.347       .  A
N932        N939   1.317       .  A
N932       Co933   2.090       .  S
Co933       N936   2.073       .  S
Co933       N953   2.076       .  S
Co933       N940   2.090       .  S
Co933      Cl975   2.465       .  S
C934        N972   1.350       .  A
C934       C1480   1.478       .  S
N935        N942   1.319       .  A
N935        N965   1.320       .  A
N935       Co968   2.070       .  S
N936        N954   1.318       .  A
N936        N972   1.323       .  A
N937        C966   1.350       .  A
N937        N947   1.324       .  A
H938        C963   1.079       .  S
N939        N960   1.320       .  A
N940        N958   1.317       .  A
N940        N945   1.324       .  A
C941        N945   1.353       .  A
C941        C969   1.461       .  S
C941       C1460   1.473       .  S
N942        C957   1.342       .  A
N942       Co964   2.095       .  S
C943        N971   1.328       .  A
C943        H977   1.078       .  S
C943        C946   1.453       .  S
C946        N967   1.361       .  A
C946       C1573   1.490       .  S
N947        N953   1.320       .  A
N948        C974   1.341       .  A
N948        N950   1.319       .  A
N948       Co964   2.080       .  S
N949        C963   1.335       .  A
N950        N978   1.322       .  A
N950       Co968   2.090       .  S
H951        C974   1.082       .  S
H952        C969   1.082       .  S
N954       Co968   2.094       .  S
N955        N967   1.331       .  A
N955        N971   1.317       .  A
N955       Co964   2.109       .  S
C956        N960   1.347       .  A
C956        C970   1.470       .  S
C956       C1543   1.492       .  S
C957        H961   1.081       .  S
C957        C976   1.469       .  S
N958        C969   1.336       .  A
N958       Co968   2.069       .  S
C962        N978   1.352       .  A
C962        C974   1.464       .  S
C962       C1450   1.477       .  S
Co964      Cl975   2.466       .  S
N965        C976   1.349       .  A
C966       C1530   1.471       .  S
Co968      Cl975   2.428       .  S
C976       C1470   1.479       .  S
N979        C983   1.355       .  A
N979       H1011   1.041       .  S
N980        C987   1.347   1_565  A
N980        C988   1.349       .  A
N981        C985   1.355   1_545  A
N981       H1012   1.041       .  S
N982        C989   1.358       .  A
N982        C990   1.357       .  A
C983        C991   1.387   1_545  A
C983        C999   1.418       .  A
C984       C1000   1.417       .  A
C985        C993   1.386       .  A
C985       C1002   1.415       .  A
C986       C1001   1.418       .  A
C986        C994   1.388       .  A
C987        C999   1.408       .  A
C987        C995   1.386       .  A
C988       C1002   1.406       .  A
C988        C996   1.385   1_565  A
C989        C997   1.385       .  A
C989       C1000   1.425       .  A
C990        C998   1.388       .  A
C990       C1001   1.429       .  A
C991        C992   1.374   1_554  A
C991       H1003   1.082       .  S
C993       H1005   1.083       .  S
C994       H1006   1.082       .  S
C995        C996   1.374       .  A
C995       H1007   1.082       .  S
C996       H1008   1.082       .  S
C997        C998   1.384       .  A
C997       H1009   1.082       .  S
C998       H1010   1.082       .  S
C999       C1420   1.485   1_545  S
C1000      C1443   1.508       .  S
C1001      C1430   1.508       .  S
C1002      C1410   1.485       .  S
N1013      C1018   1.353       .  A
N1013      C1017   1.354   1_554  A
N1013      H1045   1.035       .  S
N1014      C1021   1.353       .  A
N1014      C1022   1.353       .  A
N1015      C1020   1.353       .  A
N1015      C1019   1.352   1_554  A
N1015      H1046   1.037   1_554  S
N1016      C1023   1.348       .  A
N1016      C1024   1.349       .  A
C1017      C1025   1.391       .  A
C1017      C1033   1.421       .  A
C1018      C1034   1.412       .  A
C1018      C1026   1.385       .  A
C1019      C1027   1.391       .  A
C1019      C1036   1.417       .  A
C1020      C1035   1.410       .  A
C1020      C1028   1.384       .  A
C1021      C1033   1.419       .  A
C1021      C1029   1.386       .  A
C1022      C1036   1.421       .  A
C1022      C1030   1.387       .  A
C1023      C1031   1.386       .  A
C1023      C1034   1.405       .  A
C1024      C1032   1.386       .  A
C1024      C1035   1.406       .  A
C1025      C1026   1.368   1_556  A
C1025      H1037   1.082       .  S
C1026      H1038   1.082       .  S
C1027      C1028   1.371   1_556  A
C1027      H1039   1.082       .  S
C1028      H1040   1.083       .  S
C1029      C1030   1.379       .  A
C1029      H1041   1.082       .  S
C1030      H1042   1.082       .  S
C1031      C1032   1.369       .  A
C1031      H1043   1.082       .  S
C1032      H1044   1.082       .  S
C1033      C1390   1.490       .  S
C1034      C1370   1.476       .  S
C1035      C1383   1.480       .  S
C1036      C1403   1.489       .  S
C1047      N1065   1.337       .  A
C1047      C1084   1.485       .  S
C1047      C1440   1.491       .  S
N1048      N1065   1.320       .  A
N1048      N1070   1.323       .  A
N1048     Co1085   2.068       .  S
C1049      N1074   1.351       .  A
C1049      H1094   1.078       .  S
C1049      C1087   1.483       .  S
H1050      C1091   1.082       .  S
C1051      N1075   1.355       .  A
C1051      H1080   1.081       .  S
C1051      C1055   1.479       .  S
Co1052     N1070   2.145       .  S
Co1052     N2668   2.105       .  S
Co1052     N1092   2.065       .  S
Co1052     N2676   2.089       .  S
Co1052    Cl1096   2.458       .  S
N1053      C1091   1.333       .  A
N1053      N1060   1.323       .  A
N1053     Co1054   2.079       .  S
Co1054     N1057   2.060       .  S
Co1054     N1074   2.105       .  S
Co1054     N1061   2.123       .  S
Co1054    Cl2704   2.446   1_455  S
C1055      N1093   1.337       .  A
C1055      C1393   1.477       .  S
N1056      N1063   1.318       .  A
N1056      N1086   1.336       .  A
N1056     Co1089   2.117       .  S
N1057      N1075   1.323       .  A
N1057      N1093   1.314       .  A
N1058      C1087   1.347       .  A
N1058      N1068   1.318       .  A
H1059      C1084   1.081       .  S
N1060      N1081   1.334       .  A
N1060     Co2660   2.105   1_455  S
N1061      N1079   1.318       .  A
N1061      N1066   1.336       .  A
C1062      N1066   1.366       .  A
C1062      C1090   1.448       .  S
C1062      C1340   1.498       .  S
N1063      C1078   1.323       .  A
N1063     Co1085   2.052       .  S
C1064      N1092   1.331       .  A
C1064      H1098   1.082       .  S
C1064      C1067   1.447       .  S
C1067      N1088   1.358       .  A
C1067      C1353   1.477       .  S
N1068      N1074   1.321       .  A
N1068     Co2660   2.089   1_455  S
N1069      C1095   1.349       .  A
N1069      N1071   1.320       .  A
N1069     Co1085   2.096       .  S
N1070      C1084   1.360       .  A
N1071      N1099   1.320       .  A
N1071     Co1089   2.081       .  S
H1072      C1095   1.081       .  S
H1073      C1090   1.075       .  S
N1075     Co2697   2.120   1_455  S
N1076      N1088   1.330       .  A
N1076      N1092   1.318       .  A
N1076     Co1085   2.091       .  S
C1077      N1081   1.359       .  A
C1077      C1091   1.443       .  S
C1077      C1433   1.477       .  S
C1078      H1082   1.080       .  S
C1078      C1097   1.446       .  S
N1079      C1090   1.326       .  A
N1079     Co2697   2.057   1_455  S
C1083      N1099   1.343       .  A
C1083      C1095   1.471       .  S
C1083      C1360   1.479       .  S
Co1085    Cl1096   2.446       .  S
N1086      C1097   1.366       .  A
C1087      C1330   1.502       .  S
Co1089     N2683   2.120       .  S
Co1089     N2687   2.057       .  S
Co1089    Cl1096   2.458       .  S
Cl1096    Co2662   2.446       .  S
C1097      C1400   1.494       .  S
N1100      C1105   1.351       .  A
N1100      C1104   1.352       .  A
N1100      H1132   1.041       .  S
N1101      C1108   1.350       .  A
N1101      C1109   1.351       .  A
N1102      C1107   1.355       .  A
N1102      C1106   1.355       .  A
N1102      H1133   1.040       .  S
N1103      C1110   1.351       .  A
N1103      C1111   1.351       .  A
C1104      C1112   1.387       .  A
C1104      C1120   1.412       .  A
C1105      C1121   1.412       .  A
C1105      C1113   1.387       .  A
C1106      C1114   1.385       .  A
C1106      C1123   1.419       .  A
C1107      C1122   1.425       .  A
C1107      C1115   1.389       .  A
C1108      C1120   1.411       .  A
C1108      C1116   1.386       .  A
C1109      C1123   1.412       .  A
C1109      C1117   1.387       .  A
C1110      C1118   1.384       .  A
C1110      C1121   1.410       .  A
C1111      C1119   1.388       .  A
C1111      C1122   1.416       .  A
C1112      C1113   1.378       .  A
C1112      H1124   1.082       .  S
C1113      H1125   1.082       .  S
C1114      C1115   1.381       .  A
C1114      H1126   1.082       .  S
C1115      H1127   1.082       .  S
C1116      C1117   1.373       .  A
C1118      C1119   1.374       .  A
C1118      H1130   1.082       .  S
C1119      H1131   1.082       .  S
C1120      C1453   1.484       .  S
C1121      C1463   1.486       .  S
C1122      C1343   1.504       .  S
C1123      C1333   1.494       .  S
N1134      C1139   1.351       .  A
N1134      C1138   1.351       .  A
N1134      H1166   1.040       .  S
N1135      C1142   1.350       .  A
N1135      C1143   1.351       .  A
N1136      C1141   1.352       .  A
N1136      C1140   1.353       .  A
N1136      H1167   1.039       .  S
N1137      C1144   1.352       .  A
N1137      C1145   1.351       .  A
C1138      C1146   1.387       .  A
C1138      C1154   1.413       .  A
C1139      C1155   1.412       .  A
C1139      C1147   1.388       .  A
C1140      C1148   1.387       .  A
C1140      C1157   1.414       .  A
C1141      C1156   1.413       .  A
C1141      C1149   1.387       .  A
C1142      C1154   1.412       .  A
C1142      C1150   1.387       .  A
C1143      C1157   1.411       .  A
C1143      C1151   1.385       .  A
C1144      C1152   1.386       .  A
C1144      C1155   1.414       .  A
C1145      C1153   1.386       .  A
C1145      C1156   1.414       .  A
C1146      C1147   1.375       .  A
C1148      C1149   1.374       .  A
C1148      H1160   1.082       .  S
C1149      H1161   1.082       .  S
C1150      C1151   1.374       .  A
C1150      H1162   1.082       .  S
C1151      H1163   1.082       .  S
C1152      C1153   1.376       .  A
C1152      H1164   1.082       .  S
C1153      H1165   1.082       .  S
C1154      C1473   1.486       .  S
C1155      C1350   1.484       .  S
C1156      C1363   1.485       .  S
C1157      C1483   1.489       .  S
N1168      C1173   1.353       .  A
N1168      C1172   1.354       .  A
N1168      H1200   1.038       .  S
N1169      C1176   1.351       .  A
N1169      C1177   1.352       .  A
N1170      C1175   1.354       .  A
N1170      C1174   1.352       .  A
N1170      H1201   1.037       .  S
N1171      C1178   1.352       .  A
N1171      C1179   1.353       .  A
C1172      C1180   1.387       .  A
C1172      C1188   1.416       .  A
C1173      C1189   1.418       .  A
C1173      C1181   1.388       .  A
C1174      C1182   1.387       .  A
C1174      C1191   1.414       .  A
C1175      C1190   1.415       .  A
C1175      C1183   1.387       .  A
C1176      C1188   1.414       .  A
C1176      C1184   1.387       .  A
C1177      C1191   1.412       .  A
C1177      C1185   1.386       .  A
C1178      C1186   1.386       .  A
C1178      C1189   1.414       .  A
C1179      C1187   1.386       .  A
C1179      C1190   1.415       .  A
C1180      C1181   1.376       .  A
C1180      H1192   1.083       .  S
C1181      H1193   1.082       .  S
C1182      C1183   1.375       .  A
C1182      H1194   1.082       .  S
C1183      H1195   1.082       .  S
C1184      C1185   1.373       .  A
C1184      H1196   1.082       .  S
C1185      H1197   1.082       .  S
C1186      C1187   1.373       .  A
C1188      C1323   1.487       .  S
C1189      C1313   1.488       .  S
C1190      C1493   1.489       .  S
C1191      C1503   1.483       .  S
N1202      C1207   1.352       .  A
N1202      C1206   1.347       .  A
N1202      H1234   1.042       .  S
N1203      C1210   1.346       .  A
N1203      C1211   1.350       .  A
N1204      C1209   1.347       .  A
N1204      C1208   1.354       .  A
N1204      H1235   1.044       .  S
N1205      C1212   1.353       .  A
N1205      C1213   1.348       .  A
C1206      C1214   1.389       .  A
C1206      C1222   1.410       .  A
C1207      C1223   1.409       .  A
C1207      C1215   1.385       .  A
C1208      C1216   1.386       .  A
C1208      C1225   1.413       .  A
C1209      C1224   1.409       .  A
C1209      C1217   1.387       .  A
C1210      C1222   1.410       .  A
C1210      C1218   1.388       .  A
C1211      C1225   1.410       .  A
C1211      C1219   1.385       .  A
C1212      C1220   1.385       .  A
C1212      C1223   1.411       .  A
C1213      C1221   1.387       .  A
C1213      C1224   1.411       .  A
C1214      C1215   1.377       .  A
C1216      C1217   1.375       .  A
C1216      H1228   1.082       .  S
C1217      H1229   1.082       .  S
C1218      C1219   1.375       .  A
C1218      H1230   1.082       .  S
C1219      H1231   1.082       .  S
C1220      C1221   1.375       .  A
C1220      H1232   1.082       .  S
C1221      H1233   1.082       .  S
C1222      C1290   1.472       .  S
C1223      C1513   1.491       .  S
C1224      C1523   1.472       .  S
C1225      C1300   1.492       .  S
C1236      N1254   1.353       .  A
C1236      C1273   1.452       .  S
C1236      C1423   1.472       .  S
N1237      N1254   1.329       .  A
N1237      N1259   1.318       .  A
N1237     Co1274   2.092       .  S
C1238      N2871   1.344       .  A
C1238      H1283   1.078       .  S
C1238      C1276   1.471       .  S
H1239      C1280   1.081       .  S
C1240      N1264   1.340       .  A
C1240      H1269   1.082       .  S
C1240      C1244   1.461       .  S
Co1241     N1259   2.069       .  S
Co1241     N1249   2.067       .  S
Co1241     N1281   2.071       .  S
Co1241     N1257   2.063       .  S
Co1241    Cl1285   2.434       .  S
N1242      C1280   1.344       .  A
N1242      N1249   1.318       .  A
N1242     Co1243   2.092       .  S
Co1243     N1246   2.083       .  S
Co1243     N1263   2.084       .  S
Co1243     N2858   2.078       .  S
Co1243    Cl1285   2.458       .  S
C1244      N1282   1.352       .  A
C1244      C1303   1.476       .  S
N1245      N1252   1.318       .  A
N1245      N1275   1.321       .  A
N1245     Co1278   2.076       .  S
N1246      N1264   1.319       .  A
N1246      N1282   1.324       .  A
N1247      C1276   1.347       .  A
N1247      N2865   1.316       .  A
H1248      C1273   1.078       .  S
N1249      N1270   1.318       .  A
N1250      N1268   1.319       .  A
N1250      N1255   1.323       .  A
N1250     Co2851   2.078   1_455  S
C1251      N1255   1.350       .  A
C1251      C1279   1.462       .  S
C1251      C1320   1.473       .  S
N1252      C1267   1.335       .  A
N1252     Co1274   2.074       .  S
C1253      N2889   1.334       .  A
C1253      H1287   1.081       .  S
C1253      C1256   1.451       .  S
C1256      N1277   1.353       .  A
C1256      C1413   1.472       .  S
N1257      N2855   1.316       .  A
N1257      N1263   1.316       .  A
N1258      C1284   1.342       .  A
N1258      N1260   1.320       .  A
N1258     Co2882   2.094   1_455  S
N1259      C1273   1.334       .  A
N1260      N1288   1.322       .  A
N1260     Co2886   2.077   1_455  S
H1261      C1284   1.082       .  S
H1262      C1279   1.082       .  S
N1263      C2846   1.344       .  A
N1264     Co1278   2.081       .  S
N1265      N2885   1.329       .  A
N1265      N1281   1.319       .  A
N1265     Co1274   2.092       .  S
C1266      N1270   1.344       .  A
C1266      C1280   1.469       .  S
C1266      C1380   1.484       .  S
C1267      H1271   1.082       .  S
C1267      C1286   1.460       .  S
N1268      C1279   1.338       .  A
N1268     Co2886   2.081   1_455  S
C1272      N1288   1.348       .  A
C1272      C1284   1.465       .  S
C1272      C1310   1.480       .  S
Co1274     N2866   2.094       .  S
Co1274    Cl1285   2.456       .  S
N1275      C1286   1.350       .  A
C1276      C1373   1.485       .  S
N1277      N2873   1.329       .  A
Co1278     N2868   2.077       .  S
Co1278     N2876   2.081       .  S
Co1278    Cl1285   2.433       .  S
N1281      C2861   1.334       .  A
C1286      C1293   1.463       .  S
C1289      C1290   1.397       .  A
C1289      H1296   1.084       .  S
C1290      C1291   1.407       .  A
C1291     Br1298   1.919       .  S
C1292      C1293   1.401       .  A
C1292      H1297   1.084       .  S
C1293      C1294   1.414   1_565  A
C1294     Br1295   1.923       .  S
C1299      C1300   1.406       .  A
C1299      C1304   1.401       .  A
C1299      H1306   1.083       .  S
C1300      C1301   1.411       .  A
C1301      C1302   1.399       .  A
C1301     Br1308   1.921       .  S
C1302      C1303   1.404       .  A
C1302      H1307   1.084       .  S
C1303      C1304   1.407       .  A
C1304     Br1305   1.919       .  S
C1309      C1310   1.404       .  A
C1309      H1316   1.084       .  S
C1310      C1311   1.417       .  A
C1311     Br2926   1.922       .  S
C1312      C1313   1.401       .  A
C1312      H1317   1.084       .  S
C1313      C1314   1.407       .  A
C1314     Br1315   1.917       .  S
Br1318     C2919   1.922       .  S
C1319      C1320   1.404       .  A
C1319      C1324   1.397       .  A
C1319      H1326   1.083       .  S
C1320      C1321   1.407       .  A
C1321      C1322   1.400       .  A
C1321     Br1328   1.918       .  S
C1322      C1323   1.403       .  A
C1322      H1327   1.083       .  S
C1323      C1324   1.409       .  A
C1324     Br1325   1.919       .  S
C1329      C1330   1.412       .  A
C1329      C1334   1.394       .  A
C1329      H1336   1.083       .  S
C1330      C1331   1.420       .  A
C1331     Br1338   1.915       .  S
C1332      C1333   1.406       .  A
C1332      H1337   1.083   1_565  S
C1334     Br2943   1.921       .  S
Br1335     C2942   1.921       .  S
C1339      C1340   1.407       .  A
C1339      C1344   1.410       .  A
C1339      H1346   1.083       .  S
C1340      C1341   1.423       .  A
C1341      C1342   1.393       .  A
C1341     Br1348   1.923       .  S
C1342      C1343   1.398       .  A
C1342      H1347   1.084       .  S
C1343      C1344   1.417       .  A
C1344     Br1345   1.919       .  S
C1349      C1354   1.403       .  A
C1349      H1356   1.083       .  S
C1350      C1351   1.404       .  A
C1351      C1352   1.395   1_565  A
C1351     Br1358   1.919       .  S
C1352      H1357   1.084       .  S
C1353      C1354   1.410       .  A
C1354     Br1355   1.918       .  S
C1359      C1360   1.405       .  A
C1359      C1364   1.404       .  A
C1359      H1366   1.083       .  S
C1360      C1361   1.414       .  A
C1361      C1362   1.396       .  A
C1361     Br1368   1.919       .  S
C1362      C1363   1.398       .  A
C1362      H1367   1.084       .  S
C1363      C1364   1.409       .  A
C1364     Br1365   1.917       .  S
C1369      C1370   1.401       .  A
C1369      C1374   1.402       .  A
C1369      H1376   1.084       .  S
C1370      C1371   1.399       .  A
C1371      C1372   1.387       .  A
C1371     Br1378   1.921       .  S
C1372      C1373   1.410       .  A
C1372      H1377   1.083       .  S
C1373      C1374   1.418       .  A
C1374     Br1375   1.916       .  S
C1379      C1380   1.409       .  A
C1379      C1384   1.401       .  A
C1379      H1386   1.082       .  S
C1380      C1381   1.420       .  A
C1381      C1382   1.390       .  A
C1381     Br1388   1.922       .  S
C1382      C1383   1.395       .  A
C1382      H1387   1.084       .  S
C1383      C1384   1.406       .  A
C1384     Br1385   1.918       .  S
C1389      C1390   1.398       .  A
C1389      C1394   1.390       .  A
C1389      H1396   1.084       .  S
C1390      C1391   1.412       .  A
C1391      C1392   1.410       .  A
C1391     Br1398   1.915       .  S
C1392      C1393   1.406       .  A
C1392      H1397   1.083       .  S
C1393      C1394   1.411       .  A
C1394     Br1395   1.917       .  S
C1399      C1400   1.412       .  A
C1399      C1404   1.390       .  A
C1399      H1406   1.080       .  S
C1400      C1401   1.413       .  A
C1401      C1402   1.409       .  A
C1401     Br1408   1.917       .  S
C1402      C1403   1.409       .  A
C1402      H1407   1.083       .  S
C1403      C1404   1.401       .  A
C1404     Br1405   1.922       .  S
C1409      C1410   1.404   1_545  A
C1409      C1414   1.403   1_545  A
C1409      H1416   1.083       .  S
C1410      C1411   1.406       .  A
C1411      C1412   1.395       .  A
C1411     Br1418   1.916       .  S
C1412      C1413   1.403       .  A
C1412      H1417   1.084       .  S
C1413      C1414   1.408       .  A
C1414     Br1415   1.917   1_565  S
C1419      C1420   1.401       .  A
C1419      C1424   1.395       .  A
C1419      H1426   1.084       .  S
C1420      C1421   1.409   1_565  A
C1421      C1422   1.403       .  A
C1421     Br1428   1.918       .  S
C1422      C1423   1.403   1_545  A
C1422      H1427   1.083       .  S
C1423      C1424   1.410       .  A
C1424     Br1425   1.920       .  S
C1429      C1430   1.412       .  A
C1429      C1434   1.402       .  A
C1429      H1436   1.083       .  S
C1430      C1431   1.414       .  A
C1431      C1432   1.408       .  A
C1432      C1433   1.406       .  A
C1432      H1437   1.083       .  S
C1433      C1434   1.402       .  A
C1434     Br1435   1.919       .  S
C1439      C1440   1.406       .  A
C1439      C1444   1.406       .  A
C1439      H1446   1.084       .  S
C1440      C1441   1.412       .  A
C1441      C1442   1.412       .  A
C1442      C1443   1.408       .  A
C1443      C1444   1.414       .  A
C1444     Br1445   1.920       .  S
C1449      C1450   1.405       .  A
C1449      H1456   1.083       .  S
C1451      C1452   1.402       .  A
C1451     Br1458   1.918       .  S
C1452      C1453   1.404       .  A
C1452      H1457   1.083       .  S
C1453      C1454   1.406       .  A
C1459      C1460   1.404       .  A
C1459      C1464   1.395       .  A
C1459      H1466   1.083       .  S
C1460      C1461   1.407       .  A
C1461      C1462   1.401       .  A
C1461     Br1468   1.919       .  S
C1462      C1463   1.405       .  A
C1462      H1467   1.083       .  S
C1463      C1464   1.408       .  A
C1464     Br1465   1.918       .  S
C1469      C1470   1.407       .  A
C1469      H1476   1.083       .  S
C1470      C1471   1.409       .  A
C1471     Br1478   1.918       .  S
C1472      C1473   1.404       .  A
C1472      H1477   1.083       .  S
C1473      C1474   1.408       .  A
C1474     Br1475   1.921   1_565  S
C1479      C1480   1.404       .  A
C1479      C1484   1.397       .  A
C1479      H1486   1.083       .  S
C1480      C1481   1.410       .  A
C1481      C1482   1.401       .  A
C1481     Br1488   1.919       .  S
C1482      C1483   1.404       .  A
C1482      H1487   1.083       .  S
C1483      C1484   1.408       .  A
C1484     Br1485   1.916       .  S
C1489      C1490   1.403       .  A
C1489      C1494   1.404   1_565  A
C1489      H1496   1.083       .  S
C1491      C1492   1.399       .  A
C1491     Br1498   1.914       .  S
C1492      C1493   1.401       .  A
C1492      H1497   1.084       .  S
C1494     Br1495   1.918       .  S
C1499      C1500   1.402       .  A
C1499      C1504   1.397       .  A
C1499      H1506   1.081       .  S
C1500      C1501   1.406       .  A
C1501      C1502   1.402       .  A
C1501     Br1508   1.916       .  S
C1502      C1503   1.404       .  A
C1502      H1507   1.083       .  S
C1503      C1504   1.407       .  A
C1504     Br1505   1.919       .  S
C1509      C1510   1.405       .  A
C1509      H1516   1.083       .  S
C1511      C1512   1.404       .  A
C1511     Br1518   1.918       .  S
C1512      C1513   1.405       .  A
C1512      H1517   1.083       .  S
C1513      C1514   1.409       .  A
C1519      C1520   1.403       .  A
C1519      C1524   1.397       .  A
C1519      H1526   1.084       .  S
C1520      C1521   1.411       .  A
C1521      C1522   1.392       .  A
C1521     Br1528   1.919       .  S
C1522      C1523   1.398       .  A
C1522      H1527   1.084       .  S
C1523      C1524   1.404       .  A
C1524     Br1525   1.918       .  S
C1529      C1530   1.399       .  A
C1529      C1534   1.397       .  A
C1529      H1536   1.082       .  S
C1530      C1531   1.408       .  A
C1531      C1532   1.401       .  A
C1531     Br1538   1.919       .  S
C1532      C1533   1.406       .  A
C1532      H1537   1.083       .  S
C1533      C1534   1.410       .  A
C1534     Br1535   1.922       .  S
C1539      C1540   1.398       .  A
C1539      C1544   1.391       .  A
C1539      H1546   1.084       .  S
C1540      C1541   1.408       .  A
C1541      C1542   1.408       .  A
C1541     Br1548   1.917       .  S
C1542      C1543   1.412       .  A
C1542      H1547   1.082       .  S
C1543      C1544   1.418       .  A
C1544     Br1545   1.922       .  S
C1549      C1550   1.401       .  A
C1549      C1554   1.393       .  A
C1549      H1556   1.084       .  S
C1550      C1551   1.410       .  A
C1551      C1552   1.403       .  A
C1551     Br1558   1.917       .  S
C1552      C1553   1.403       .  A
C1552      H1557   1.083       .  S
C1553      C1554   1.408       .  A
C1554     Br1555   1.919       .  S
C1559      C1560   1.398       .  A
C1559      C1564   1.394       .  A
C1559      H1566   1.084       .  S
C1560      C1561   1.408       .  A
C1561      C1562   1.402       .  A
C1561     Br1568   1.919       .  S
C1562      C1563   1.403       .  A
C1562      H1567   1.083       .  S
C1563      C1564   1.410       .  A
C1564     Br1565   1.919       .  S
C1569      C1570   1.392       .  A
C1569      C1574   1.390       .  A
C1569      H1576   1.085       .  S
C1570      C1571   1.406       .  A
C1571      C1572   1.406       .  A
C1572      C1573   1.409       .  A
C1573      C1574   1.422       .  A
C1574     Br1575   1.914       .  S
C1579      C1580   1.400       .  A
C1579      C1584   1.396       .  A
C1579      H1586   1.083       .  S
C1580      C1581   1.409       .  A
C1581      C1582   1.401       .  A
C1582      C1583   1.403       .  A
C1582      H1587   1.084       .  S
C1583      C1584   1.410       .  A
C1584     Br1585   1.920       .  S
C1589      C1590   1.408       .  A
C1589      C1594   1.407       .  A
C1590      C1591   1.418       .  A
C1591      C1592   1.389       .  A
C1591     Br1598   1.924       .  S
C1592      C1593   1.398       .  A
C1592      H1597   1.084       .  S
C1593      C1594   1.411       .  A
C1599      C1600   1.402       .  A
C1599      C1604   1.389       .  A
C1599      H1606   1.084       .  S
C1600      C1601   1.414       .  A
C1601      C1602   1.406       .  A
C1601     Br1608   1.920   1_565  S
C1602      C1603   1.405       .  A
C1602      H1607   1.083       .  S
C1603      C1604   1.410       .  A
C1604     Br1605   1.923       .  S
N1609      C1614   1.354   1_565  A
N1609      C2417   1.354       .  A
N1609      H1641   1.040       .  S
N1610      C1618   1.349       .  A
N1611      C2420   1.353       .  A
N1611      C1615   1.354       .  A
N1611      H1642   1.041       .  S
N1612      C1620   1.349       .  A
C1613      N2413   1.354       .  A
C1613      C1621   1.386       .  A
C1613      C1629   1.415       .  A
C1614      C1630   1.417       .  A
C1614      C1622   1.389       .  A
C1615      C1623   1.386       .  A
C1615      C1632   1.415       .  A
C1616      N2415   1.353   1_545  A
C1616      C1631   1.414       .  A
C1616      C1624   1.387       .  A
C1617      C1629   1.408       .  A
C1617      C1625   1.385       .  A
C1618      C1632   1.412       .  A
C1618      C1626   1.387       .  A
C1619      C1627   1.387       .  A
C1619      C1630   1.411       .  A
C1620      C1628   1.386       .  A
C1620      C1631   1.410       .  A
C1621      C2426   1.370       .  A
C1621      H1633   1.082       .  S
C1622      C2425   1.370       .  A
C1622      H1634   1.082       .  S
C1623      C2428   1.374       .  A
C1623      H1635   1.082       .  S
C1624      C2427   1.374       .  A
C1624      H1636   1.082       .  S
C1625      H1637   1.082       .  S
C1626      H1638   1.082       .  S
C1627      H1639   1.082       .  S
C1628      H1640   1.082       .  S
C1629      C2397   1.490       .  S
C1630      C2374   1.483       .  S
C1631      C2384   1.484       .  S
C1632      C2404   1.493       .  S
N1643      C1648   1.352       .  A
N1643      C1647   1.351       .  A
N1643      H1675   1.040       .  S
N1644      C1652   1.354       .  A
N1645      C1650   1.356       .  A
N1645      C1649   1.353       .  A
N1645      H1676   1.036       .  S
N1646      C1654   1.348       .  A
C1647      C1655   1.385       .  A
C1647      C1663   1.412       .  A
C1648      C1664   1.416       .  A
C1648      C1656   1.388       .  A
C1649      C1657   1.391       .  A
C1649      C1666   1.426       .  A
C1650      C1665   1.422       .  A
C1650      C1658   1.385       .  A
C1651      C1663   1.416       .  A
C1651      C1659   1.384       .  A
C1652      C1666   1.423       .  A
C1652      C1660   1.388       .  A
C1653      C1661   1.386       .  A
C1653      C1664   1.410       .  A
C1654      C1662   1.387       .  A
C1654      C1665   1.412       .  A
C1655      C1656   1.373       .  A
C1655      H1667   1.083       .  S
C1656      H1668   1.082       .  S
C1657      C1658   1.371       .  A
C1657      H1669   1.080       .  S
C1658      H1670   1.082       .  S
C1659      H1671   1.082       .  S
C1660      H1672   1.082       .  S
C1661      H1673   1.082       .  S
C1662      H1674   1.082       .  S
C1663      C2344   1.492       .  S
C1664      C2364   1.481       .  S
C1665      C2354   1.488       .  S
C1666      C2337   1.491       .  S
C1677      N1695   1.354       .  A
C1677      C1714   1.452       .  S
C1677      C2407   1.475       .  S
N1678      N1695   1.329       .  A
N1678      N1700   1.318       .  A
N1678     Co1715   2.090       .  S
C1679      N1704   1.347       .  A
C1679      H1724   1.081       .  S
C1679      C1717   1.463       .  S
H1680      C1721   1.081       .  S
C1681      N1705   1.340       .  A
C1681      H1710   1.082       .  S
C1681      C1685   1.465       .  S
Co1682     N1700   2.066       .  S
Co1682     N1690   2.058       .  S
Co1682     N1722   2.059       .  S
Co1682     N1698   2.073       .  S
Co1682    Cl1726   2.422       .  S
N1683      C1721   1.349       .  A
N1683      N1690   1.317       .  A
N1683     Co1684   2.101       .  S
Co1684     N1687   2.063       .  S
Co1684     N1704   2.086       .  S
Co1684     N1691   2.088       .  S
Co1684    Cl1726   2.465       .  S
C1685      N1723   1.346       .  A
C1685      C2324   1.465       .  S
N1686      N1693   1.320       .  A
N1686      N1716   1.323       .  A
N1686     Co1719   2.085       .  S
N1687      N1705   1.318       .  A
N1687      N1723   1.320       .  A
N1688      C1717   1.344       .  A
N1688      N1698   1.319       .  A
H1689      C1714   1.081       .  S
N1690      N1711   1.318       .  A
N1691      N1709   1.321       .  A
N1691      N1696   1.323       .  A
C1692      N1696   1.351       .  A
C1692      C1720   1.465       .  S
C1692      C2304   1.471       .  S
N1693      C1708   1.344       .  A
N1693     Co1715   2.101       .  S
C1694      N1722   1.328       .  A
C1694      H1728   1.077       .  S
C1694      C1697   1.450       .  S
C1697      N1718   1.360       .  A
C1697      C2394   1.486       .  S
N1698      N1704   1.317       .  A
N1699      C1725   1.342       .  A
N1699      N1701   1.321       .  A
N1699     Co1715   2.086       .  S
N1700      C1714   1.331       .  A
N1701      N1729   1.326       .  A
N1701     Co1719   2.101       .  S
H1702      C1725   1.082       .  S
H1703      C1720   1.082       .  S
N1705     Co1719   2.089       .  S
N1706      N1718   1.332       .  A
N1706      N1722   1.318       .  A
N1706     Co1715   2.110       .  S
C1707      N1711   1.342       .  A
C1707      C1721   1.466       .  S
C1707      C2367   1.469       .  S
C1708      H1712   1.081       .  S
C1708      C1727   1.469       .  S
N1709      C1720   1.341       .  A
N1709     Co1719   2.094       .  S
C1713      N1729   1.354       .  A
C1713      C1725   1.462       .  S
C1713      C2294   1.479       .  S
Co1715    Cl1726   2.472       .  S
N1716      C1727   1.351       .  A
C1717      C2357   1.468       .  S
Co1719    Cl1726   2.436       .  S
C1727      C2314   1.484       .  S
C1730      N1748   1.350       .  A
C1730      C1767   1.455       .  S
C1730      C2387   1.471       .  S
N1731      N1748   1.327       .  A
N1731      N1753   1.321       .  A
N1731     Co1768   2.089       .  S
C1732      N1757   1.341       .  A
C1732      H1777   1.081       .  S
C1732      C1770   1.456       .  S
H1733      C1774   1.081       .  S
C1734      N1758   1.341       .  A
C1734      H1763   1.082       .  S
C1734      C1738   1.468       .  S
Co1735     N1753   2.077       .  S
Co1735     N1743   2.079       .  S
Co1735     N1775   2.057       .  S
Co1735     N1751   2.091       .  S
Co1735    Cl1779   2.432       .  S
N1736      C1774   1.347       .  A
N1736      N1743   1.317       .  A
N1736     Co1737   2.090       .  S
Co1737     N1740   2.073       .  S
Co1737     N1757   2.075       .  S
Co1737     N1744   2.090       .  S
Co1737    Cl1779   2.465       .  S
C1738      N1776   1.350       .  A
C1738      C2284   1.478       .  S
N1739      N1746   1.319       .  A
N1739      N1769   1.320       .  A
N1739     Co1772   2.070       .  S
N1740      N1758   1.318       .  A
N1740      N1776   1.323       .  A
N1741      C1770   1.350       .  A
N1741      N1751   1.324       .  A
H1742      C1767   1.079       .  S
N1743      N1764   1.320       .  A
N1744      N1762   1.317       .  A
N1744      N1749   1.324       .  A
C1745      N1749   1.353       .  A
C1745      C1773   1.461       .  S
C1745      C2264   1.473       .  S
N1746      C1761   1.342       .  A
N1746     Co1768   2.095       .  S
C1747      N1775   1.328       .  A
C1747      H1781   1.078       .  S
C1747      C1750   1.453       .  S
C1750      N1771   1.361       .  A
C1750      C2377   1.490       .  S
N1751      N1757   1.320       .  A
N1752      C1778   1.341       .  A
N1752      N1754   1.319       .  A
N1752     Co1768   2.080       .  S
N1753      C1767   1.335       .  A
N1754      N1782   1.322       .  A
N1754     Co1772   2.090       .  S
H1755      C1778   1.082       .  S
H1756      C1773   1.082       .  S
N1758     Co1772   2.094       .  S
N1759      N1771   1.331       .  A
N1759      N1775   1.317       .  A
N1759     Co1768   2.108       .  S
C1760      N1764   1.347       .  A
C1760      C1774   1.470       .  S
C1760      C2347   1.492       .  S
C1761      H1765   1.081       .  S
C1761      C1780   1.469       .  S
N1762      C1773   1.336       .  A
N1762     Co1772   2.069       .  S
C1766      N1782   1.352       .  A
C1766      C1778   1.464       .  S
C1766      C2254   1.477       .  S
Co1768    Cl1779   2.466       .  S
N1769      C1780   1.349       .  A
C1770      C2334   1.471       .  S
Co1772    Cl1779   2.429       .  S
C1780      C2274   1.479       .  S
N1783      C2592   1.355   1_554  A
N1783      C1787   1.355       .  A
N1783      H1815   1.041       .  S
N1784      C1791   1.347       .  A
N1784      C1792   1.349       .  A
N1785      C2594   1.353   1_554  A
N1785      C1789   1.355       .  A
N1785      H1816   1.041       .  S
N1786      C1793   1.358       .  A
N1786      C1794   1.357       .  A
C1787      C1795   1.387       .  A
C1787      C1803   1.418       .  A
C1788      N2587   1.355   1_556  A
C1788      C1804   1.417       .  A
C1788      C2600   1.387   1_545  A
C1789      C1797   1.386       .  A
C1789      C1806   1.415       .  A
C1790      N2589   1.353   1_566  A
C1790      C1805   1.418   1_565  A
C1790      C1798   1.388       .  A
C1791      C1803   1.408       .  A
C1791      C1799   1.386       .  A
C1792      C1806   1.406       .  A
C1792      C1800   1.385       .  A
C1793      C1801   1.385       .  A
C1793      C1804   1.425       .  A
C1794      C1802   1.388       .  A
C1794      C1805   1.429       .  A
C1795      C1796   1.374   1_554  A
C1795      H1807   1.082       .  S
C1796      C2592   1.387       .  A
C1796      H2612   1.082       .  S
C1797      C2602   1.376   1_554  A
C1797      H1809   1.083       .  S
C1798      C2601   1.376   1_556  A
C1798      H1810   1.082       .  S
C1799      C1800   1.374       .  A
C1799      H1811   1.082       .  S
C1800      H1812   1.082       .  S
C1801      C1802   1.384       .  A
C1801      H1813   1.082       .  S
C1802      H1814   1.082       .  S
C1803      C2224   1.485       .  S
C1804      C2247   1.508       .  S
C1805      C2234   1.508       .  S
C1806      C2214   1.485       .  S
H1808      C2600   1.082       .  S
N1817      C1822   1.353       .  A
N1817      C1821   1.354   1_554  A
N1817      H1849   1.035       .  S
N1818      C1825   1.353       .  A
N1818      C1826   1.353       .  A
N1819      C1824   1.353       .  A
N1819      C1823   1.352   1_554  A
N1819      H1850   1.037   1_554  S
N1820      C1827   1.348       .  A
N1820      C1828   1.349       .  A
C1821      C1829   1.391       .  A
C1821      C1837   1.421       .  A
C1822      C1838   1.412       .  A
C1822      C1830   1.385       .  A
C1823      C1831   1.391       .  A
C1823      C1840   1.417       .  A
C1824      C1839   1.410       .  A
C1824      C1832   1.384       .  A
C1825      C1837   1.419       .  A
C1825      C1833   1.386       .  A
C1826      C1840   1.421       .  A
C1826      C1834   1.387       .  A
C1827      C1835   1.385       .  A
C1827      C1838   1.405       .  A
C1828      C1836   1.386       .  A
C1828      C1839   1.406       .  A
C1829      C1830   1.368   1_556  A
C1829      H1841   1.082       .  S
C1830      H1842   1.082       .  S
C1831      C1832   1.371   1_556  A
C1831      H1843   1.082       .  S
C1832      H1844   1.083       .  S
C1833      C1834   1.379       .  A
C1833      H1845   1.082       .  S
C1834      H1846   1.082       .  S
C1835      C1836   1.369       .  A
C1835      H1847   1.082       .  S
C1836      H1848   1.082       .  S
C1837      C2194   1.490       .  S
C1838      C2174   1.476       .  S
C1839      C2187   1.480       .  S
C1840      C2207   1.489       .  S
C1851      N1869   1.337       .  A
C1851      C1888   1.485       .  S
C1851      C2244   1.491       .  S
N1852      N1869   1.320       .  A
N1852      N1874   1.323       .  A
N1852     Co1889   2.068       .  S
C1853      N1878   1.351       .  A
C1853      H1898   1.078       .  S
C1853      C1891   1.483       .  S
H1854      C1895   1.082       .  S
C1855      N1879   1.355       .  A
C1855      H1884   1.081       .  S
C1855      C1859   1.479       .  S
Co1856     N1874   2.145       .  S
Co1856     N1896   2.065       .  S
Co1856    Cl1900   2.458       .  S
N1857      C1895   1.333       .  A
N1857      N1864   1.323       .  A
N1857     Co1858   2.079       .  S
Co1858     N1861   2.060       .  S
Co1858     N1878   2.105       .  S
Co1858     N1865   2.123       .  S
C1859      N1897   1.337       .  A
C1859      C2197   1.477       .  S
N1860      N1867   1.318       .  A
N1860      N1890   1.336       .  A
N1860     Co1893   2.117       .  S
N1861      N1879   1.323       .  A
N1861      N1897   1.314       .  A
N1862      C1891   1.347       .  A
N1862      N1872   1.318       .  A
H1863      C1888   1.081       .  S
N1864      N1885   1.334       .  A
N1865      N1883   1.318       .  A
N1865      N1870   1.336       .  A
C1866      N1870   1.366       .  A
C1866      C1894   1.448       .  S
C1866      C2144   1.498       .  S
N1867      C1882   1.323       .  A
N1867     Co1889   2.052       .  S
C1868      N1896   1.331       .  A
C1868      H1902   1.082       .  S
C1868      C1871   1.447       .  S
C1871      N1892   1.358       .  A
C1871      C2157   1.476       .  S
N1872      N1878   1.321       .  A
N1873      C1899   1.349       .  A
N1873      N1875   1.320       .  A
N1873     Co1889   2.096       .  S
N1874      C1888   1.360       .  A
N1875      N1903   1.320       .  A
N1875     Co1893   2.081       .  S
H1876      C1899   1.081       .  S
H1877      C1894   1.075       .  S
N1880      N1892   1.330       .  A
N1880      N1896   1.318       .  A
N1880     Co1889   2.091       .  S
C1881      N1885   1.359       .  A
C1881      C1895   1.443       .  S
C1881      C2237   1.477       .  S
C1882      H1886   1.081       .  S
C1882      C1901   1.446       .  S
N1883      C1894   1.326       .  A
C1887      N1903   1.343       .  A
C1887      C1899   1.471       .  S
C1887      C2164   1.479       .  S
Co1889    Cl1900   2.446       .  S
N1890      C1901   1.366       .  A
C1891      C2134   1.502       .  S
Co1893    Cl1900   2.458       .  S
C1901      C2204   1.494       .  S
N1904      C1909   1.351       .  A
N1904      C1908   1.352       .  A
N1904      H1936   1.041       .  S
N1905      C1912   1.350       .  A
N1905      C1913   1.351       .  A
N1906      C1911   1.355       .  A
N1906      C1910   1.355       .  A
N1906      H1937   1.040       .  S
N1907      C1914   1.351       .  A
N1907      C1915   1.351       .  A
C1908      C1916   1.387       .  A
C1908      C1924   1.412       .  A
C1909      C1925   1.412       .  A
C1909      C1917   1.387       .  A
C1910      C1918   1.385       .  A
C1910      C1927   1.419       .  A
C1911      C1926   1.425       .  A
C1911      C1919   1.389       .  A
C1912      C1924   1.411       .  A
C1912      C1920   1.386       .  A
C1913      C1927   1.412       .  A
C1913      C1921   1.387       .  A
C1914      C1922   1.384       .  A
C1914      C1925   1.410       .  A
C1915      C1923   1.388       .  A
C1915      C1926   1.416       .  A
C1916      C1917   1.378       .  A
C1916      H1928   1.082       .  S
C1917      H1929   1.082       .  S
C1918      C1919   1.381       .  A
C1918      H1930   1.082       .  S
C1919      H1931   1.082       .  S
C1920      C1921   1.373       .  A
C1920      H2736   1.082       .  S
C1921      H2737   1.082       .  S
C1922      C1923   1.374       .  A
C1922      H1934   1.082       .  S
C1923      H1935   1.082       .  S
C1924      C2257   1.484       .  S
C1925      C2267   1.486       .  S
C1926      C2147   1.504       .  S
C1927      C2137   1.494       .  S
H1932      C2724   1.082   1_545  S
H1933      C2725   1.082   1_545  S
N1938      C1943   1.351       .  A
N1938      C1942   1.351       .  A
N1938      H1970   1.040       .  S
N1939      C1946   1.350       .  A
N1939      C1947   1.351       .  A
N1940      C1945   1.352       .  A
N1940      C1944   1.353       .  A
N1940      H1971   1.039       .  S
N1941      C1948   1.352       .  A
N1941      C1949   1.351       .  A
C1942      C1950   1.387       .  A
C1942      C1958   1.413       .  A
C1943      C1959   1.412       .  A
C1943      C1951   1.388       .  A
C1944      C1952   1.387       .  A
C1944      C1961   1.414       .  A
C1945      C1960   1.413       .  A
C1945      C1953   1.387       .  A
C1946      C1958   1.412       .  A
C1946      C1954   1.387       .  A
C1947      C1961   1.411       .  A
C1947      C1955   1.385       .  A
C1948      C1956   1.386       .  A
C1948      C1959   1.414       .  A
C1949      C1957   1.386       .  A
C1949      C1960   1.414       .  A
C1950      C1951   1.375       .  A
C1950      H2766   1.082       .  S
C1951      H2767   1.082       .  S
C1952      C1953   1.374       .  A
C1952      H1964   1.082       .  S
C1953      H1965   1.082       .  S
C1954      C1955   1.374       .  A
C1954      H1966   1.082       .  S
C1955      H1967   1.082       .  S
C1956      C1957   1.376       .  A
C1956      H1968   1.082       .  S
C1957      H1969   1.082       .  S
C1958      C2277   1.486       .  S
C1959      C2154   1.484       .  S
C1960      C2167   1.485       .  S
C1961      C2287   1.489       .  S
H1962      C2754   1.082   1_545  S
H1963      C2755   1.082   1_545  S
N1972      C1977   1.353       .  A
N1972      C1976   1.354       .  A
N1972      H2004   1.038       .  S
N1973      C1980   1.351       .  A
N1973      C1981   1.352       .  A
N1974      C1979   1.354       .  A
N1974      C1978   1.352       .  A
N1974      H2005   1.037       .  S
N1975      C1982   1.352       .  A
N1975      C1983   1.353       .  A
C1976      C1984   1.387       .  A
C1976      C1992   1.416       .  A
C1977      C1993   1.418       .  A
C1977      C1985   1.388       .  A
C1978      C1986   1.387       .  A
C1978      C1995   1.414       .  A
C1979      C1994   1.415       .  A
C1979      C1987   1.387       .  A
C1980      C1992   1.414       .  A
C1980      C1988   1.387       .  A
C1981      C1995   1.412       .  A
C1981      C1989   1.386       .  A
C1982      C1990   1.386       .  A
C1982      C1993   1.414       .  A
C1983      C1991   1.386       .  A
C1983      C1994   1.415       .  A
C1984      C1985   1.376       .  A
C1984      H1996   1.083       .  S
C1985      H1997   1.082       .  S
C1986      C1987   1.375       .  A
C1986      H1998   1.082       .  S
C1987      H1999   1.082       .  S
C1988      C1989   1.373       .  A
C1988      H2000   1.082       .  S
C1989      H2001   1.082       .  S
C1990      C1991   1.373       .  A
C1990      H2806   1.082   1_545  S
C1991      H2807   1.082   1_545  S
C1992      C2127   1.487       .  S
C1993      C2117   1.488       .  S
C1994      C2297   1.489       .  S
C1995      C2307   1.483       .  S
H2002      C2794   1.082       .  S
H2003      C2795   1.082       .  S
N2006      C2011   1.352       .  A
N2006      C2010   1.347       .  A
N2006      H2038   1.042       .  S
N2007      C2014   1.346       .  A
N2007      C2015   1.350       .  A
N2008      C2013   1.347       .  A
N2008      C2012   1.354       .  A
N2008      H2039   1.044       .  S
N2009      C2016   1.353       .  A
N2009      C2017   1.348       .  A
C2010      C2018   1.389       .  A
C2010      C2026   1.410       .  A
C2011      C2027   1.409       .  A
C2011      C2019   1.385       .  A
C2012      C2020   1.386       .  A
C2012      C2029   1.413       .  A
C2013      C2028   1.409       .  A
C2013      C2021   1.387       .  A
C2014      C2026   1.410       .  A
C2014      C2022   1.388       .  A
C2015      C2029   1.410       .  A
C2015      C2023   1.385       .  A
C2016      C2024   1.385       .  A
C2016      C2027   1.411       .  A
C2017      C2025   1.387       .  A
C2017      C2028   1.411       .  A
C2018      C2019   1.377       .  A
C2018      H2834   1.082   1_545  S
C2019      H2835   1.082   1_545  S
C2020      C2021   1.375       .  A
C2020      H2032   1.082       .  S
C2021      H2033   1.082       .  S
C2022      C2023   1.375       .  A
C2022      H2034   1.082       .  S
C2023      H2035   1.082       .  S
C2024      C2025   1.376       .  A
C2024      H2036   1.082       .  S
C2025      H2037   1.082       .  S
C2026      C2094   1.472       .  S
C2027      C2317   1.491       .  S
C2028      C2327   1.472       .  S
C2029      C2104   1.492       .  S
H2030      C2822   1.082       .  S
H2031      C2823   1.082       .  S
C2040      N2058   1.353       .  A
C2040      C2077   1.452       .  S
C2040      C2227   1.472       .  S
N2041      N2058   1.329       .  A
N2041      N2063   1.318       .  A
N2041     Co2078   2.092       .  S
C2042      H2087   1.078       .  S
C2042      C2080   1.471       .  S
H2043      C2084   1.081       .  S
C2044      N2068   1.340       .  A
C2044      H2073   1.082       .  S
C2044      C2048   1.461       .  S
Co2045     N2063   2.069       .  S
Co2045     N2053   2.067       .  S
Co2045     N2085   2.071   1_655  S
Co2045     N2061   2.063   1_655  S
Co2045    Cl2089   2.434       .  S
N2046      C2084   1.344       .  A
N2046      N2053   1.318       .  A
N2046     Co2047   2.092       .  S
Co2047     N2050   2.083       .  S
Co2047     N2067   2.084   1_655  S
Co2047    Cl2089   2.458       .  S
C2048      N2086   1.352       .  A
C2048      C2107   1.476       .  S
N2049      N2056   1.318       .  A
N2049      N2079   1.321       .  A
N2049     Co2082   2.076       .  S
N2050      N2068   1.319       .  A
N2050      N2086   1.324       .  A
N2051      C2080   1.347       .  A
H2052      C2077   1.078       .  S
N2053      N2074   1.318       .  A
N2054      N2072   1.319       .  A
N2054      N2059   1.323       .  A
C2055      N2059   1.350       .  A
C2055      C2083   1.462       .  S
C2055      C2124   1.473       .  S
N2056      C2071   1.335       .  A
N2056     Co2078   2.074       .  S
C2057      H2091   1.081       .  S
C2057      C2060   1.451       .  S
C2060      N2081   1.353       .  A
C2060      C2217   1.472       .  S
N2061      N2067   1.316       .  A
N2062      C2088   1.342       .  A
N2062      N2064   1.320       .  A
N2063      C2077   1.334       .  A
N2064      N2092   1.322       .  A
H2065      C2088   1.082       .  S
H2066      C2083   1.082       .  S
N2068     Co2082   2.081       .  S
N2069      N2085   1.319       .  A
N2069     Co2078   2.092   1_455  S
C2070      N2074   1.344       .  A
C2070      C2084   1.469       .  S
C2070      C2184   1.484       .  S
C2071      H2075   1.082       .  S
C2071      C2090   1.460       .  S
N2072      C2083   1.338       .  A
C2076      N2092   1.348       .  A
C2076      C2088   1.466       .  S
C2076      C2114   1.480       .  S
Co2078    Cl2089   2.456       .  S
N2079      C2090   1.350       .  A
C2080      C2177   1.485       .  S
Co2082    Cl2089   2.433       .  S
C2090      C2097   1.463       .  S
C2093      C2094   1.396       .  A
C2093      C2902   1.389       .  A
C2093      H2100   1.084       .  S
C2094      C2095   1.407       .  A
C2095      C2900   1.397   1_545  A
C2095     Br2102   1.919   1_545  S
C2096      C2899   1.397       .  A
C2096      C2097   1.401       .  A
C2096      H2101   1.084       .  S
C2097      C2098   1.414       .  A
C2098      C2897   1.389       .  A
C2098     Br2099   1.923       .  S
C2103      C2104   1.406       .  A
C2103      C2108   1.401       .  A
C2103      H2110   1.083       .  S
C2104      C2105   1.411       .  A
C2105      C2106   1.399       .  A
C2105     Br2112   1.921       .  S
C2106      C2107   1.404       .  A
C2106      H2111   1.084       .  S
C2107      C2108   1.407       .  A
C2108     Br2109   1.919       .  S
C2113      C2114   1.404       .  A
C2113      C2922   1.400       .  A
C2113      H2120   1.084       .  S
C2114      C2115   1.417       .  A
C2115      C2920   1.398       .  A
C2116      C2919   1.398       .  A
C2116      C2117   1.401   1_565  A
C2116      H2121   1.084   1_565  S
C2117      C2118   1.407       .  A
C2118      C2917   1.400   1_545  A
C2118     Br2119   1.917       .  S
C2123      C2124   1.404       .  A
C2123      C2128   1.397       .  A
C2123      H2130   1.083       .  S
C2124      C2125   1.407       .  A
C2125      C2126   1.400       .  A
C2125     Br2132   1.918       .  S
C2126      C2127   1.403       .  A
C2126      H2131   1.083       .  S
C2127      C2128   1.409       .  A
C2128     Br2129   1.919       .  S
C2133      C2134   1.412   1_565  A
C2133      C2138   1.394       .  A
C2133      H2140   1.083       .  S
C2134      C2135   1.420       .  A
C2135      C2940   1.411   1_545  A
C2135     Br2142   1.915       .  S
C2136      C2939   1.411       .  A
C2136      C2137   1.406       .  A
C2136      H2141   1.083       .  S
C2137      C2942   1.403       .  A
C2138      C2941   1.403       .  A
C2143      C2144   1.407       .  A
C2143      C2148   1.410       .  A
C2143      H2150   1.083       .  S
C2144      C2145   1.423       .  A
C2145      C2146   1.393       .  A
C2145     Br2152   1.923       .  S
C2146      C2147   1.398       .  A
C2146      H2151   1.084       .  S
C2147      C2148   1.417       .  A
C2148     Br2149   1.919       .  S
C2153      C2958   1.404       .  A
C2153      C2158   1.403   1_565  A
C2153      H2160   1.083       .  S
C2154      C2957   1.404       .  A
C2154      C2155   1.404       .  A
C2155      C2156   1.395       .  A
C2155     Br2162   1.919       .  S
C2156      C2961   1.406       .  A
C2156      H2161   1.084       .  S
C2157      C2960   1.406       .  A
C2157      C2158   1.410       .  A
C2158     Br2159   1.918       .  S
C2163      C2164   1.405       .  A
C2163      C2168   1.404       .  A
C2163      H2170   1.083       .  S
C2164      C2165   1.414       .  A
C2165      C2166   1.396       .  A
C2165     Br2172   1.919       .  S
C2166      C2167   1.398       .  A
C2166      H2171   1.084       .  S
C2167      C2168   1.409       .  A
C2168     Br2169   1.917       .  S
C2173      C2174   1.401       .  A
C2173      C2178   1.402       .  A
C2173      H2180   1.084       .  S
C2174      C2175   1.399       .  A
C2175      C2176   1.387       .  A
C2175     Br2182   1.921       .  S
C2176      C2177   1.410       .  A
C2176      H2181   1.083       .  S
C2177      C2178   1.418       .  A
C2178     Br2179   1.916       .  S
C2183      C2184   1.409       .  A
C2183      C2188   1.401       .  A
C2183      H2190   1.082       .  S
C2184      C2185   1.420       .  A
C2185      C2186   1.390       .  A
C2185     Br2192   1.922       .  S
C2186      C2187   1.395       .  A
C2186      H2191   1.084       .  S
C2187      C2188   1.406       .  A
C2188     Br2189   1.918       .  S
C2193      C2194   1.398       .  A
C2193      C2198   1.390       .  A
C2193      H2200   1.084       .  S
C2194      C2195   1.412       .  A
C2195      C2196   1.410       .  A
C2195     Br2202   1.915       .  S
C2196      C2197   1.406       .  A
C2196      H2201   1.083       .  S
C2197      C2198   1.411       .  A
C2198     Br2199   1.917       .  S
C2203      C2204   1.412       .  A
C2203      C2208   1.391       .  A
C2203      H2210   1.080       .  S
C2204      C2205   1.413       .  A
C2205      C2206   1.409       .  A
C2205     Br2212   1.917       .  S
C2206      C2207   1.409       .  A
C2206      H2211   1.083       .  S
C2207      C2208   1.401       .  A
C2208     Br2209   1.922       .  S
C2213      C2214   1.404       .  A
C2213      C2218   1.403       .  A
C2213      H2220   1.083       .  S
C2214      C2215   1.406       .  A
C2215      C2216   1.395       .  A
C2215     Br2222   1.916       .  S
C2216      C2217   1.403       .  A
C2216      H2221   1.084       .  S
C2217      C2218   1.408       .  A
C2218     Br2219   1.917       .  S
C2223      C2224   1.401       .  A
C2223      C2228   1.395       .  A
C2223      H2230   1.084       .  S
C2224      C2225   1.409       .  A
C2225      C2226   1.403       .  A
C2225     Br2232   1.918       .  S
C2226      C2227   1.403       .  A
C2226      H2231   1.083       .  S
C2227      C2228   1.410       .  A
C2228     Br2229   1.920       .  S
C2233      C2234   1.412       .  A
C2233      C2238   1.402       .  A
C2233      H2240   1.083       .  S
C2234      C2235   1.414       .  A
C2235      C2236   1.408       .  A
C2235     Br3046   1.919   1_545  S
C2236      C2237   1.406       .  A
C2236      H2241   1.083   1_545  S
C2237      C2238   1.402       .  A
C2238     Br2239   1.919       .  S
Br2242     C3039   1.919       .  S
C2243      C2244   1.406       .  A
C2243      C2248   1.406       .  A
C2243      H2250   1.084       .  S
C2244      C2245   1.412       .  A
C2245      C2246   1.412       .  A
C2245     Br3056   1.916   1_545  S
C2246      C2247   1.408       .  A
C2246      H3055   1.083   1_545  S
C2247      C2248   1.414       .  A
C2248     Br2249   1.920       .  S
H2251      C3050   1.083       .  S
Br2252     C3049   1.916       .  S
C2253      C2254   1.405       .  A
C2253      C3062   1.395   1_545  A
C2253      H2260   1.083       .  S
C2254      C3059   1.409   1_545  A
C2255      C3058   1.409       .  A
C2255      C2256   1.402       .  A
C2255     Br2262   1.918       .  S
C2256      C2257   1.404       .  A
C2256      H2261   1.083       .  S
C2257      C2258   1.406       .  A
C2258      C3057   1.395       .  A
C2258     Br3063   1.918       .  S
Br2259     C3062   1.918       .  S
C2263      C2264   1.404       .  A
C2263      C2268   1.395       .  A
C2263      H2270   1.083       .  S
C2264      C2265   1.407       .  A
C2265      C2266   1.401       .  A
C2265     Br2272   1.919       .  S
C2266      C2267   1.405       .  A
C2266      H2271   1.083       .  S
C2267      C2268   1.408       .  A
C2268     Br2269   1.918       .  S
C2273      C2274   1.407       .  A
C2273      C3082   1.395   1_545  A
C2273      H2280   1.083       .  S
C2274      C2275   1.409   1_545  A
C2275      C3080   1.399       .  A
C2275     Br2282   1.918       .  S
C2276      C3079   1.399       .  A
C2276      C2277   1.404       .  A
C2276      H2281   1.083       .  S
C2277      C2278   1.408       .  A
C2278      C3077   1.395       .  A
C2278     Br2279   1.921       .  S
C2283      C2284   1.405       .  A
C2283      C2288   1.397       .  A
C2283      H2290   1.083       .  S
C2284      C2285   1.410       .  A
C2285      C2286   1.401       .  A
C2285     Br2292   1.919       .  S
C2286      C2287   1.404       .  A
C2286      H2291   1.083       .  S
C2287      C2288   1.408       .  A
C2288     Br2289   1.916       .  S
C2293      C2294   1.403       .  A
C2293      C2298   1.404       .  A
C2293      H2300   1.083       .  S
C2294      C3099   1.410       .  A
C2295      C3098   1.410       .  A
C2295      C2296   1.399   1_565  A
C2295     Br2302   1.914       .  S
C2296      C2297   1.401       .  A
C2296      H2301   1.084       .  S
C2297      C3102   1.409       .  A
C2298      C3101   1.409       .  A
C2298     Br2299   1.918       .  S
C2303      C2304   1.402       .  A
C2303      C2308   1.397       .  A
C2303      H2310   1.081       .  S
C2304      C2305   1.406       .  A
C2305      C2306   1.402       .  A
C2305     Br2312   1.916       .  S
C2306      C2307   1.404       .  A
C2306      H2311   1.083       .  S
C2307      C2308   1.407       .  A
C2308     Br2309   1.919       .  S
C2313      C2314   1.405       .  A
C2313      C3122   1.397       .  A
C2313      H2320   1.083       .  S
C2314      C3119   1.411       .  A
C2315      C3118   1.411       .  A
C2315      C2316   1.404   1_565  A
C2315     Br2322   1.918       .  S
C2316      C2317   1.405       .  A
C2316      H2321   1.083       .  S
C2317      C2318   1.409   1_545  A
C2318      C3117   1.397       .  A
C2318     Br3123   1.920   1_565  S
Br2319     C3122   1.920       .  S
C2323      C2324   1.403       .  A
C2323      C2328   1.397       .  A
C2323      H2330   1.084       .  S
C2324      C2325   1.411       .  A
C2325      C2326   1.392       .  A
C2325     Br2332   1.919       .  S
C2326      C2327   1.398       .  A
C2326      H2331   1.084       .  S
C2327      C2328   1.404       .  A
C2328     Br2329   1.918       .  S
C2333      C2334   1.399       .  A
C2333      C2338   1.397       .  A
C2333      H2340   1.082       .  S
C2334      C2335   1.408       .  A
C2335      C2336   1.402       .  A
C2335     Br2342   1.919       .  S
C2336      C2337   1.406       .  A
C2336      H2341   1.083       .  S
C2337      C2338   1.410       .  A
C2338     Br2339   1.922       .  S
C2343      C2344   1.398       .  A
C2343      C2348   1.391       .  A
C2343      H2350   1.084       .  S
C2344      C2345   1.408       .  A
C2345      C2346   1.408       .  A
C2345     Br2352   1.917       .  S
C2346      C2347   1.412       .  A
C2346      H2351   1.082       .  S
C2347      C2348   1.418       .  A
C2348     Br2349   1.922       .  S
C2353      C2354   1.401       .  A
C2353      C2358   1.393       .  A
C2353      H2360   1.084       .  S
C2354      C2355   1.410       .  A
C2355      C2356   1.403       .  A
C2355     Br2362   1.917       .  S
C2356      C2357   1.403       .  A
C2356      H2361   1.083       .  S
C2357      C2358   1.408       .  A
C2358     Br2359   1.919       .  S
C2363      C2364   1.398       .  A
C2363      C2368   1.394       .  A
C2363      H2370   1.084       .  S
C2364      C2365   1.408       .  A
C2365      C2366   1.402       .  A
C2365     Br2372   1.919       .  S
C2366      C2367   1.403       .  A
C2366      H2371   1.083       .  S
C2367      C2368   1.410       .  A
C2368     Br2369   1.919       .  S
C2373      C2374   1.392       .  A
C2373      C2378   1.390       .  A
C2373      H2380   1.085       .  S
C2374      C2375   1.406   1_545  A
C2375      C2376   1.406   1_565  A
C2375     Br3186   1.916       .  S
C2376      C2377   1.409       .  A
C2376      H3185   1.083   1_545  S
C2377      C2378   1.422       .  A
C2378     Br2379   1.913       .  S
H2381      C3180   1.083       .  S
Br2382     C3179   1.916       .  S
C2383      C2384   1.400       .  A
C2383      C2388   1.396       .  A
C2383      H2390   1.083       .  S
C2384      C2385   1.409   1_545  A
C2385      C2386   1.401   1_565  A
C2385     Br3196   1.919       .  S
C2386      C2387   1.403       .  A
C2386      H2391   1.084   1_545  S
C2387      C2388   1.410       .  A
C2388     Br2389   1.920       .  S
Br2392     C3189   1.919       .  S
C2393      C2394   1.408       .  A
C2393      C2398   1.407       .  A
C2393      H3204   1.083       .  S
C2394      C2395   1.418       .  A
C2395      C2396   1.389       .  A
C2395     Br2402   1.924       .  S
C2396      C2397   1.398       .  A
C2396      H2401   1.084       .  S
C2397      C2398   1.411       .  A
C2398     Br3203   1.918       .  S
Br2399     C3202   1.918   1_545  S
H2400      C3197   1.083       .  S
C2403      C2404   1.402       .  A
C2403      C2408   1.389       .  A
C2403      H2410   1.084       .  S
C2404      C2405   1.414       .  A
C2405      C2406   1.406       .  A
C2405     Br2412   1.920       .  S
C2406      C2407   1.405       .  A
C2406      H2411   1.083       .  S
C2407      C2408   1.410       .  A
C2408     Br2409   1.923       .  S
N2413      C2418   1.354       .  A
N2413      H2445   1.040       .  S
N2414      C2422   1.349       .  A
N2415      C2419   1.354   1_565  A
N2415      H2446   1.041       .  S
N2416      C2424   1.349       .  A
C2417      C2425   1.386   1_565  A
C2417      C2433   1.415       .  A
C2418      C2434   1.417       .  A
C2418      C2426   1.389       .  A
C2419      C2427   1.386       .  A
C2419      C2436   1.415   1_545  A
C2420      C2435   1.414       .  A
C2420      C2428   1.387       .  A
C2421      C2433   1.408       .  A
C2421      C2429   1.385       .  A
C2422      C2436   1.412       .  A
C2422      C2430   1.387       .  A
C2423      C2431   1.387       .  A
C2423      C2434   1.411       .  A
C2424      C2432   1.386       .  A
C2424      C2435   1.410       .  A
C2425      H2437   1.082       .  S
C2426      H2438   1.082       .  S
C2427      H2439   1.082       .  S
C2428      H2440   1.082       .  S
C2429      H2441   1.082       .  S
C2430      H2442   1.082       .  S
C2431      H2443   1.082       .  S
C2432      H2444   1.082       .  S
C2433      C3201   1.490       .  S
C2434      C3178   1.483       .  S
C2435      C3188   1.484       .  S
C2436      C3208   1.493       .  S
N2447      C2452   1.352       .  A
N2447      C2451   1.351       .  A
N2447      H2479   1.040       .  S
N2448      C2456   1.354       .  A
N2449      C2454   1.356       .  A
N2449      C2453   1.353       .  A
N2449      H2480   1.036       .  S
N2450      C2458   1.348       .  A
C2451      C2459   1.385       .  A
C2451      C2467   1.412       .  A
C2452      C2468   1.416       .  A
C2452      C2460   1.388       .  A
C2453      C2461   1.391       .  A
C2453      C2470   1.426       .  A
C2454      C2469   1.422       .  A
C2454      C2462   1.385       .  A
C2455      C2467   1.416       .  A
C2455      C2463   1.384       .  A
C2456      C2470   1.423       .  A
C2456      C2464   1.388       .  A
C2457      C2465   1.386       .  A
C2457      C2468   1.410       .  A
C2458      C2466   1.387       .  A
C2458      C2469   1.412       .  A
C2459      C2460   1.373       .  A
C2459      H2471   1.083       .  S
C2460      H2472   1.082       .  S
C2461      C2462   1.371       .  A
C2461      H2473   1.080       .  S
C2462      H2474   1.082       .  S
C2463      H2475   1.082       .  S
C2464      H2476   1.082       .  S
C2465      H2477   1.082       .  S
C2466      H2478   1.082       .  S
C2467      C3148   1.492       .  S
C2468      C3168   1.481       .  S
C2469      C3158   1.488       .  S
C2470      C3141   1.491       .  S
C2481      N2499   1.354       .  A
C2481      C2518   1.452       .  S
C2481      C3211   1.475       .  S
N2482      N2499   1.329       .  A
N2482      N2504   1.318       .  A
N2482     Co2519   2.090       .  S
C2483      N2508   1.347       .  A
C2483      H2528   1.081       .  S
C2483      C2521   1.463       .  S
H2484      C2525   1.081       .  S
C2485      N2509   1.340       .  A
C2485      H2514   1.082       .  S
C2485      C2489   1.465       .  S
Co2486     N2504   2.066       .  S
Co2486     N2494   2.058       .  S
Co2486     N2526   2.059       .  S
Co2486     N2502   2.073       .  S
Co2486    Cl2530   2.422       .  S
N2487      C2525   1.349       .  A
N2487      N2494   1.317       .  A
N2487     Co2488   2.101       .  S
Co2488     N2491   2.063       .  S
Co2488     N2508   2.086       .  S
Co2488     N2495   2.088       .  S
Co2488    Cl2530   2.465       .  S
C2489      N2527   1.346       .  A
C2489      C3128   1.465       .  S
N2490      N2497   1.320       .  A
N2490      N2520   1.323       .  A
N2490     Co2523   2.085       .  S
N2491      N2509   1.318       .  A
N2491      N2527   1.320       .  A
N2492      C2521   1.344       .  A
N2492      N2502   1.319       .  A
H2493      C2518   1.081       .  S
N2494      N2515   1.318       .  A
N2495      N2513   1.321       .  A
N2495      N2500   1.323       .  A
C2496      N2500   1.351       .  A
C2496      C2524   1.465       .  S
C2496      C3108   1.471       .  S
N2497      C2512   1.344       .  A
N2497     Co2519   2.101       .  S
C2498      N2526   1.328       .  A
C2498      H2532   1.077       .  S
C2498      C2501   1.450       .  S
C2501      N2522   1.360       .  A
C2501      C3198   1.486       .  S
N2502      N2508   1.317       .  A
N2503      C2529   1.342       .  A
N2503      N2505   1.321       .  A
N2503     Co2519   2.086       .  S
N2504      C2518   1.331       .  A
N2505      N2533   1.326       .  A
N2505     Co2523   2.101       .  S
H2506      C2529   1.082       .  S
H2507      C2524   1.082       .  S
N2509     Co2523   2.089       .  S
N2510      N2522   1.332       .  A
N2510      N2526   1.318       .  A
N2510     Co2519   2.110       .  S
C2511      N2515   1.342       .  A
C2511      C2525   1.466       .  S
C2511      C3171   1.469       .  S
C2512      H2516   1.081       .  S
C2512      C2531   1.469       .  S
N2513      C2524   1.341       .  A
N2513     Co2523   2.094       .  S
C2517      N2533   1.354       .  A
C2517      C2529   1.462       .  S
C2517      C3098   1.479       .  S
Co2519    Cl2530   2.472       .  S
N2520      C2531   1.351       .  A
C2521      C3161   1.468       .  S
Co2523    Cl2530   2.436       .  S
C2531      C3118   1.484       .  S
C2534      N2552   1.350       .  A
C2534      C2571   1.455       .  S
C2534      C3191   1.471       .  S
N2535      N2552   1.327       .  A
N2535      N2557   1.321       .  A
N2535     Co2572   2.089       .  S
C2536      N2561   1.341       .  A
C2536      H2581   1.081       .  S
C2536      C2574   1.456       .  S
H2537      C2578   1.081       .  S
C2538      N2562   1.341       .  A
C2538      H2567   1.082       .  S
C2538      C2542   1.468       .  S
Co2539     N2557   2.077       .  S
Co2539     N2547   2.079       .  S
Co2539     N2579   2.057       .  S
Co2539     N2555   2.091       .  S
Co2539    Cl2583   2.432       .  S
N2540      C2578   1.347       .  A
N2540      N2547   1.317       .  A
N2540     Co2541   2.090       .  S
Co2541     N2544   2.073       .  S
Co2541     N2561   2.075       .  S
Co2541     N2548   2.090       .  S
Co2541    Cl2583   2.465       .  S
C2542      N2580   1.350       .  A
C2542      C3088   1.478       .  S
N2543      N2550   1.319       .  A
N2543      N2573   1.320       .  A
N2543     Co2576   2.070       .  S
N2544      N2562   1.318       .  A
N2544      N2580   1.323       .  A
N2545      C2574   1.350       .  A
N2545      N2555   1.324       .  A
H2546      C2571   1.079       .  S
N2547      N2568   1.320       .  A
N2548      N2566   1.317       .  A
N2548      N2553   1.324       .  A
C2549      N2553   1.353       .  A
C2549      C2577   1.461       .  S
C2549      C3068   1.473       .  S
N2550      C2565   1.342       .  A
N2550     Co2572   2.095       .  S
C2551      N2579   1.328       .  A
C2551      H2585   1.078       .  S
C2551      C2554   1.453       .  S
C2554      N2575   1.361       .  A
C2554      C3181   1.490       .  S
N2555      N2561   1.320       .  A
N2556      C2582   1.341       .  A
N2556      N2558   1.319       .  A
N2556     Co2572   2.080       .  S
N2557      C2571   1.335       .  A
N2558      N2586   1.322       .  A
N2558     Co2576   2.090       .  S
H2559      C2582   1.082       .  S
H2560      C2577   1.082       .  S
N2562     Co2576   2.094       .  S
N2563      N2575   1.331       .  A
N2563      N2579   1.317       .  A
N2563     Co2572   2.108       .  S
C2564      N2568   1.347       .  A
C2564      C2578   1.470       .  S
C2564      C3151   1.492       .  S
C2565      H2569   1.081       .  S
C2565      C2584   1.469       .  S
N2566      C2577   1.336       .  A
N2566     Co2576   2.069       .  S
C2570      N2586   1.352       .  A
C2570      C2582   1.464       .  S
C2570      C3058   1.477       .  S
Co2572    Cl2583   2.466       .  S
N2573      C2584   1.349       .  A
C2574      C3138   1.471       .  S
Co2576    Cl2583   2.429       .  S
C2584      C3078   1.479       .  S
N2587      C2591   1.355       .  A
N2587      H2619   1.041       .  S
N2588      C2595   1.347   1_565  A
N2588      C2596   1.349       .  A
N2589      C2593   1.355   1_545  A
N2589      H2620   1.041       .  S
N2590      C2597   1.358       .  A
N2590      C2598   1.357       .  A
C2591      C2599   1.387   1_545  A
C2591      C2607   1.418       .  A
C2592      C2608   1.417       .  A
C2593      C2601   1.386       .  A
C2593      C2610   1.415       .  A
C2594      C2609   1.418       .  A
C2594      C2602   1.388       .  A
C2595      C2607   1.408       .  A
C2595      C2603   1.386       .  A
C2596      C2610   1.406       .  A
C2596      C2604   1.385   1_565  A
C2597      C2605   1.385       .  A
C2597      C2608   1.425       .  A
C2598      C2606   1.388       .  A
C2598      C2609   1.429       .  A
C2599      C2600   1.374   1_554  A
C2599      H2611   1.082       .  S
C2601      H2613   1.083       .  S
C2602      H2614   1.082       .  S
C2603      C2604   1.374       .  A
C2603      H2615   1.082       .  S
C2604      H2616   1.082       .  S
C2605      C2606   1.384       .  A
C2605      H2617   1.082       .  S
C2606      H2618   1.082       .  S
C2607      C3028   1.485   1_545  S
C2608      C3051   1.508       .  S
C2609      C3038   1.508       .  S
C2610      C3018   1.485       .  S
N2621      C2626   1.353       .  A
N2621      C2625   1.354   1_554  A
N2621      H2653   1.035       .  S
N2622      C2629   1.353       .  A
N2622      C2630   1.353       .  A
N2623      C2628   1.353       .  A
N2623      C2627   1.352   1_554  A
N2623      H2654   1.037   1_554  S
N2624      C2631   1.348       .  A
N2624      C2632   1.349       .  A
C2625      C2633   1.391       .  A
C2625      C2641   1.421       .  A
C2626      C2642   1.412       .  A
C2626      C2634   1.385       .  A
C2627      C2635   1.391       .  A
C2627      C2644   1.417       .  A
C2628      C2643   1.410       .  A
C2628      C2636   1.384       .  A
C2629      C2641   1.419       .  A
C2629      C2637   1.386       .  A
C2630      C2644   1.421       .  A
C2630      C2638   1.387       .  A
C2631      C2639   1.385       .  A
C2631      C2642   1.405       .  A
C2632      C2640   1.386       .  A
C2632      C2643   1.406       .  A
C2633      C2634   1.368   1_556  A
C2633      H2645   1.082       .  S
C2634      H2646   1.082       .  S
C2635      C2636   1.371   1_556  A
C2635      H2647   1.082       .  S
C2636      H2648   1.083       .  S
C2637      C2638   1.379       .  A
C2637      H2649   1.082       .  S
C2638      H2650   1.082       .  S
C2639      C2640   1.369       .  A
C2639      H2651   1.082       .  S
C2640      H2652   1.082       .  S
C2641      C2998   1.490       .  S
C2642      C2978   1.476       .  S
C2643      C2991   1.480       .  S
C2644      C3011   1.489       .  S
C2655      N2673   1.337       .  A
C2655      C2692   1.485       .  S
C2655      C3048   1.491       .  S
N2656      N2673   1.320       .  A
N2656      N2678   1.323       .  A
N2656     Co2693   2.068       .  S
C2657      N2682   1.351       .  A
C2657      H2702   1.078       .  S
C2657      C2695   1.483       .  S
H2658      C2699   1.082       .  S
C2659      N2683   1.355       .  A
C2659      H2688   1.081       .  S
C2659      C2663   1.479       .  S
Co2660     N2678   2.145       .  S
Co2660     N2700   2.065       .  S
Co2660    Cl2704   2.458       .  S
N2661      C2699   1.333       .  A
N2661      N2668   1.323       .  A
N2661     Co2662   2.079       .  S
Co2662     N2665   2.060       .  S
Co2662     N2682   2.105       .  S
Co2662     N2669   2.123       .  S
C2663      N2701   1.337       .  A
C2663      C3001   1.477       .  S
N2664      N2671   1.318       .  A
N2664      N2694   1.336       .  A
N2664     Co2697   2.117       .  S
N2665      N2683   1.323       .  A
N2665      N2701   1.314       .  A
N2666      C2695   1.347       .  A
N2666      N2676   1.318       .  A
H2667      C2692   1.081       .  S
N2668      N2689   1.334       .  A
N2669      N2687   1.318       .  A
N2669      N2674   1.336       .  A
C2670      N2674   1.366       .  A
C2670      C2698   1.448       .  S
C2670      C2948   1.498       .  S
N2671      C2686   1.323       .  A
N2671     Co2693   2.052       .  S
C2672      N2700   1.331       .  A
C2672      H2706   1.082       .  S
C2672      C2675   1.447       .  S
C2675      N2696   1.358       .  A
C2675      C2961   1.476       .  S
N2676      N2682   1.321       .  A
N2677      C2703   1.349       .  A
N2677      N2679   1.320       .  A
N2677     Co2693   2.096       .  S
N2678      C2692   1.360       .  A
N2679      N2707   1.320       .  A
N2679     Co2697   2.081       .  S
H2680      C2703   1.081       .  S
H2681      C2698   1.075       .  S
N2684      N2696   1.330       .  A
N2684      N2700   1.318       .  A
N2684     Co2693   2.091       .  S
C2685      N2689   1.359       .  A
C2685      C2699   1.443       .  S
C2685      C3041   1.477       .  S
C2686      H2690   1.080       .  S
C2686      C2705   1.446       .  S
N2687      C2698   1.326       .  A
C2691      N2707   1.343       .  A
C2691      C2703   1.471       .  S
C2691      C2968   1.479       .  S
Co2693    Cl2704   2.446       .  S
N2694      C2705   1.366       .  A
C2695      C2938   1.502       .  S
Co2697    Cl2704   2.458       .  S
C2705      C3008   1.494       .  S
N2708      C2713   1.351       .  A
N2708      C2712   1.352       .  A
N2708      H2740   1.041       .  S
N2709      C2716   1.350       .  A
N2709      C2717   1.351       .  A
N2710      C2715   1.355       .  A
N2710      C2714   1.355       .  A
N2710      H2741   1.040       .  S
N2711      C2718   1.351       .  A
N2711      C2719   1.351       .  A
C2712      C2720   1.387       .  A
C2712      C2728   1.412       .  A
C2713      C2729   1.412       .  A
C2713      C2721   1.387       .  A
C2714      C2722   1.385       .  A
C2714      C2731   1.419       .  A
C2715      C2730   1.425       .  A
C2715      C2723   1.389       .  A
C2716      C2728   1.411       .  A
C2716      C2724   1.386       .  A
C2717      C2731   1.412       .  A
C2717      C2725   1.387       .  A
C2718      C2726   1.384       .  A
C2718      C2729   1.410       .  A
C2719      C2727   1.388       .  A
C2719      C2730   1.416       .  A
C2720      C2721   1.378       .  A
C2720      H2732   1.082       .  S
C2721      H2733   1.082       .  S
C2722      C2723   1.381       .  A
C2722      H2734   1.082       .  S
C2723      H2735   1.082       .  S
C2724      C2725   1.373       .  A
C2726      C2727   1.374       .  A
C2726      H2738   1.082       .  S
C2727      H2739   1.082       .  S
C2728      C3061   1.484       .  S
C2729      C3071   1.486       .  S
C2730      C2951   1.504       .  S
C2731      C2941   1.494       .  S
N2742      C2747   1.351       .  A
N2742      C2746   1.351       .  A
N2742      H2774   1.040       .  S
N2743      C2750   1.350       .  A
N2743      C2751   1.351       .  A
N2744      C2749   1.352       .  A
N2744      C2748   1.353       .  A
N2744      H2775   1.039       .  S
N2745      C2752   1.352       .  A
N2745      C2753   1.351       .  A
C2746      C2754   1.387       .  A
C2746      C2762   1.413       .  A
C2747      C2763   1.412       .  A
C2747      C2755   1.388       .  A
C2748      C2756   1.387       .  A
C2748      C2765   1.414       .  A
C2749      C2764   1.413       .  A
C2749      C2757   1.387       .  A
C2750      C2762   1.412       .  A
C2750      C2758   1.387       .  A
C2751      C2765   1.411       .  A
C2751      C2759   1.385       .  A
C2752      C2760   1.386       .  A
C2752      C2763   1.414       .  A
C2753      C2761   1.386       .  A
C2753      C2764   1.414       .  A
C2754      C2755   1.375       .  A
C2756      C2757   1.374       .  A
C2756      H2768   1.082       .  S
C2757      H2769   1.082       .  S
C2758      C2759   1.374       .  A
C2758      H2770   1.082       .  S
C2759      H2771   1.082       .  S
C2760      C2761   1.376       .  A
C2760      H2772   1.082       .  S
C2761      H2773   1.082       .  S
C2762      C3081   1.486       .  S
C2763      C2958   1.484       .  S
C2764      C2971   1.485       .  S
C2765      C3091   1.489       .  S
N2776      C2781   1.353       .  A
N2776      C2780   1.354       .  A
N2776      H2808   1.038       .  S
N2777      C2784   1.351       .  A
N2777      C2785   1.352       .  A
N2778      C2783   1.354       .  A
N2778      C2782   1.352       .  A
N2778      H2809   1.037       .  S
N2779      C2786   1.352       .  A
N2779      C2787   1.353       .  A
C2780      C2788   1.387       .  A
C2780      C2796   1.416       .  A
C2781      C2797   1.418       .  A
C2781      C2789   1.388       .  A
C2782      C2790   1.387       .  A
C2782      C2799   1.414       .  A
C2783      C2798   1.415       .  A
C2783      C2791   1.387       .  A
C2784      C2796   1.414       .  A
C2784      C2792   1.387       .  A
C2785      C2799   1.412       .  A
C2785      C2793   1.386       .  A
C2786      C2794   1.386       .  A
C2786      C2797   1.414       .  A
C2787      C2795   1.386       .  A
C2787      C2798   1.415       .  A
C2788      C2789   1.376       .  A
C2788      H2800   1.083       .  S
C2789      H2801   1.082       .  S
C2790      C2791   1.375       .  A
C2790      H2802   1.082       .  S
C2791      H2803   1.082       .  S
C2792      C2793   1.373       .  A
C2792      H2804   1.082       .  S
C2793      H2805   1.082       .  S
C2794      C2795   1.373       .  A
C2796      C2931   1.487       .  S
C2797      C2921   1.488       .  S
C2798      C3101   1.489       .  S
C2799      C3111   1.483       .  S
N2810      C2815   1.352       .  A
N2810      C2814   1.347       .  A
N2810      H2842   1.042       .  S
N2811      C2818   1.346       .  A
N2811      C2819   1.350       .  A
N2812      C2817   1.347       .  A
N2812      C2816   1.354       .  A
N2812      H2843   1.044       .  S
N2813      C2820   1.353       .  A
N2813      C2821   1.348       .  A
C2814      C2822   1.389       .  A
C2814      C2830   1.410       .  A
C2815      C2831   1.409       .  A
C2815      C2823   1.385       .  A
C2816      C2824   1.386       .  A
C2816      C2833   1.413       .  A
C2817      C2832   1.409       .  A
C2817      C2825   1.387       .  A
C2818      C2830   1.410       .  A
C2818      C2826   1.388       .  A
C2819      C2833   1.410       .  A
C2819      C2827   1.385       .  A
C2820      C2828   1.385       .  A
C2820      C2831   1.411       .  A
C2821      C2829   1.387       .  A
C2821      C2832   1.411       .  A
C2822      C2823   1.377       .  A
C2824      C2825   1.375       .  A
C2824      H2836   1.082       .  S
C2825      H2837   1.082       .  S
C2826      C2827   1.375       .  A
C2826      H2838   1.082       .  S
C2827      H2839   1.082       .  S
C2828      C2829   1.375       .  A
C2828      H2840   1.082       .  S
C2829      H2841   1.082       .  S
C2830      C2898   1.472       .  S
C2831      C3121   1.491       .  S
C2832      C3131   1.472       .  S
C2833      C2908   1.492       .  S
C2844      N2862   1.353       .  A
C2844      C2881   1.452       .  S
C2844      C3031   1.472       .  S
N2845      N2862   1.329       .  A
N2845      N2867   1.318       .  A
N2845     Co2882   2.092       .  S
C2846      H2891   1.078       .  S
C2846      C2884   1.471       .  S
H2847      C2888   1.081       .  S
C2848      N2872   1.340       .  A
C2848      H2877   1.082       .  S
C2848      C2852   1.461       .  S
Co2849     N2867   2.069       .  S
Co2849     N2857   2.067       .  S
Co2849     N2889   2.071   1_655  S
Co2849     N2865   2.063   1_655  S
Co2849    Cl2893   2.434       .  S
N2850      C2888   1.344       .  A
N2850      N2857   1.318       .  A
N2850     Co2851   2.092       .  S
Co2851     N2854   2.083       .  S
Co2851     N2871   2.084   1_655  S
Co2851    Cl2893   2.458       .  S
C2852      N2890   1.352       .  A
C2852      C2911   1.476       .  S
N2853      N2860   1.318       .  A
N2853      N2883   1.321       .  A
N2853     Co2886   2.076       .  S
N2854      N2872   1.319       .  A
N2854      N2890   1.324       .  A
N2855      C2884   1.347       .  A
H2856      C2881   1.078       .  S
N2857      N2878   1.318       .  A
N2858      N2876   1.319       .  A
N2858      N2863   1.323       .  A
C2859      N2863   1.350       .  A
C2859      C2887   1.462       .  S
C2859      C2928   1.473       .  S
N2860      C2875   1.335       .  A
N2860     Co2882   2.074       .  S
C2861      H2895   1.081       .  S
C2861      C2864   1.451       .  S
C2864      N2885   1.353       .  A
C2864      C3021   1.472       .  S
N2865      N2871   1.316       .  A
N2866      C2892   1.342       .  A
N2866      N2868   1.320       .  A
N2867      C2881   1.334       .  A
N2868      N2896   1.322       .  A
H2869      C2892   1.082       .  S
H2870      C2887   1.082       .  S
N2872     Co2886   2.081       .  S
N2873      N2889   1.319       .  A
N2873     Co2882   2.092   1_455  S
C2874      N2878   1.344       .  A
C2874      C2888   1.469       .  S
C2874      C2988   1.484       .  S
C2875      H2879   1.082       .  S
C2875      C2894   1.460       .  S
N2876      C2887   1.338       .  A
C2880      N2896   1.348       .  A
C2880      C2892   1.465       .  S
C2880      C2918   1.480       .  S
Co2882    Cl2893   2.456       .  S
N2883      C2894   1.350       .  A
C2884      C2981   1.485       .  S
Co2886    Cl2893   2.433       .  S
C2894      C2901   1.463       .  S
C2897      C2898   1.396       .  A
C2897      H2904   1.084       .  S
C2898      C2899   1.407       .  A
C2899     Br2906   1.919       .  S
C2900      C2901   1.401       .  A
C2900      H2905   1.084       .  S
C2901      C2902   1.414   1_565  A
C2902     Br2903   1.923       .  S
C2907      C2908   1.406       .  A
C2907      C2912   1.401       .  A
C2907      H2914   1.083       .  S
C2908      C2909   1.411       .  A
C2909      C2910   1.399       .  A
C2909     Br2916   1.921       .  S
C2910      C2911   1.404       .  A
C2910      H2915   1.084       .  S
C2911      C2912   1.407       .  A
C2912     Br2913   1.919       .  S
C2917      C2918   1.404       .  A
C2917      H2924   1.084       .  S
C2918      C2919   1.417       .  A
C2920      C2921   1.401       .  A
C2920      H2925   1.084       .  S
C2921      C2922   1.407       .  A
C2922     Br2923   1.917       .  S
C2927      C2928   1.404       .  A
C2927      C2932   1.397       .  A
C2927      H2934   1.083       .  S
C2928      C2929   1.407       .  A
C2929      C2930   1.400       .  A
C2929     Br2936   1.918       .  S
C2930      C2931   1.403       .  A
C2930      H2935   1.083       .  S
C2931      C2932   1.409       .  A
C2932     Br2933   1.919       .  S
C2937      C2938   1.412       .  A
C2937      C2942   1.394       .  A
C2937      H2944   1.083       .  S
C2938      C2939   1.420       .  A
C2939     Br2946   1.915       .  S
C2940      C2941   1.406       .  A
C2940      H2945   1.083   1_565  S
C2947      C2948   1.407       .  A
C2947      C2952   1.410       .  A
C2947      H2954   1.083       .  S
C2948      C2949   1.423       .  A
C2949      C2950   1.393       .  A
C2949     Br2956   1.923       .  S
C2950      C2951   1.398       .  A
C2950      H2955   1.084       .  S
C2951      C2952   1.417       .  A
C2952     Br2953   1.919       .  S
C2957      C2962   1.403       .  A
C2957      H2964   1.083       .  S
C2958      C2959   1.404       .  A
C2959      C2960   1.395   1_565  A
C2959     Br2966   1.919       .  S
C2960      H2965   1.084       .  S
C2961      C2962   1.410       .  A
C2962     Br2963   1.918       .  S
C2967      C2968   1.405       .  A
C2967      C2972   1.404       .  A
C2967      H2974   1.083       .  S
C2968      C2969   1.414       .  A
C2969      C2970   1.396       .  A
C2969     Br2976   1.919       .  S
C2970      C2971   1.398       .  A
C2970      H2975   1.084       .  S
C2971      C2972   1.409       .  A
C2972     Br2973   1.917       .  S
C2977      C2978   1.401       .  A
C2977      C2982   1.402       .  A
C2977      H2984   1.084       .  S
C2978      C2979   1.399       .  A
C2979      C2980   1.387       .  A
C2979     Br2986   1.921       .  S
C2980      C2981   1.410       .  A
C2980      H2985   1.083       .  S
C2981      C2982   1.418       .  A
C2982     Br2983   1.916       .  S
C2987      C2988   1.409       .  A
C2987      C2992   1.401       .  A
C2987      H2994   1.082       .  S
C2988      C2989   1.420       .  A
C2989      C2990   1.390       .  A
C2989     Br2996   1.922       .  S
C2990      C2991   1.395       .  A
C2990      H2995   1.084       .  S
C2991      C2992   1.406       .  A
C2992     Br2993   1.918       .  S
C2997      C2998   1.398       .  A
C2997      C3002   1.390       .  A
C2997      H3004   1.084       .  S
C2998      C2999   1.412       .  A
C2999      C3000   1.410       .  A
C2999     Br3006   1.915       .  S
C3000      C3001   1.406       .  A
C3000      H3005   1.083       .  S
C3001      C3002   1.411       .  A
C3002     Br3003   1.917       .  S
C3007      C3008   1.412       .  A
C3007      C3012   1.391       .  A
C3007      H3014   1.080       .  S
C3008      C3009   1.413       .  A
C3009      C3010   1.409       .  A
C3009     Br3016   1.917       .  S
C3010      C3011   1.409       .  A
C3010      H3015   1.083       .  S
C3011      C3012   1.401       .  A
C3012     Br3013   1.922       .  S
C3017      C3018   1.404   1_545  A
C3017      C3022   1.403   1_545  A
C3017      H3024   1.083       .  S
C3018      C3019   1.406       .  A
C3019      C3020   1.395       .  A
C3019     Br3026   1.916       .  S
C3020      C3021   1.403       .  A
C3020      H3025   1.084       .  S
C3021      C3022   1.408       .  A
C3022     Br3023   1.917   1_565  S
C3027      C3028   1.401       .  A
C3027      C3032   1.395       .  A
C3027      H3034   1.084       .  S
C3028      C3029   1.409   1_565  A
C3029      C3030   1.403       .  A
C3029     Br3036   1.918       .  S
C3030      C3031   1.403   1_545  A
C3030      H3035   1.083       .  S
C3031      C3032   1.410       .  A
C3032     Br3033   1.920       .  S
C3037      C3038   1.412       .  A
C3037      C3042   1.402       .  A
C3037      H3044   1.083       .  S
C3038      C3039   1.414       .  A
C3039      C3040   1.408       .  A
C3040      C3041   1.406       .  A
C3040      H3045   1.083       .  S
C3041      C3042   1.402       .  A
C3042     Br3043   1.919       .  S
C3047      C3048   1.406       .  A
C3047      C3052   1.406       .  A
C3047      H3054   1.084       .  S
C3048      C3049   1.412       .  A
C3049      C3050   1.412       .  A
C3050      C3051   1.408       .  A
C3051      C3052   1.414       .  A
C3052     Br3053   1.920       .  S
C3057      C3058   1.405       .  A
C3057      H3064   1.083       .  S
C3059      C3060   1.402       .  A
C3059     Br3066   1.918       .  S
C3060      C3061   1.404       .  A
C3060      H3065   1.083       .  S
C3061      C3062   1.406       .  A
C3067      C3068   1.404       .  A
C3067      C3072   1.395       .  A
C3067      H3074   1.083       .  S
C3068      C3069   1.407       .  A
C3069      C3070   1.401       .  A
C3069     Br3076   1.919       .  S
C3070      C3071   1.405       .  A
C3070      H3075   1.083       .  S
C3071      C3072   1.408       .  A
C3072     Br3073   1.918       .  S
C3077      C3078   1.407       .  A
C3077      H3084   1.083       .  S
C3078      C3079   1.409       .  A
C3079     Br3086   1.918       .  S
C3080      C3081   1.404       .  A
C3080      H3085   1.083       .  S
C3081      C3082   1.408       .  A
C3082     Br3083   1.921   1_565  S
C3087      C3088   1.405       .  A
C3087      C3092   1.397       .  A
C3087      H3094   1.083       .  S
C3088      C3089   1.410       .  A
C3089      C3090   1.401       .  A
C3089     Br3096   1.919       .  S
C3090      C3091   1.404       .  A
C3090      H3095   1.083       .  S
C3091      C3092   1.408       .  A
C3092     Br3093   1.916       .  S
C3097      C3098   1.403       .  A
C3097      C3102   1.404   1_565  A
C3097      H3104   1.083       .  S
C3099      C3100   1.399       .  A
C3099     Br3106   1.914       .  S
C3100      C3101   1.401       .  A
C3100      H3105   1.084       .  S
C3102     Br3103   1.918       .  S
C3107      C3108   1.402       .  A
C3107      C3112   1.397       .  A
C3107      H3114   1.081       .  S
C3108      C3109   1.406       .  A
C3109      C3110   1.402       .  A
C3109     Br3116   1.916       .  S
C3110      C3111   1.404       .  A
C3110      H3115   1.083       .  S
C3111      C3112   1.407       .  A
C3112     Br3113   1.919       .  S
C3117      C3118   1.405       .  A
C3117      H3124   1.083       .  S
C3119      C3120   1.404       .  A
C3119     Br3126   1.918       .  S
C3120      C3121   1.405       .  A
C3120      H3125   1.083       .  S
C3121      C3122   1.409       .  A
C3127      C3128   1.403       .  A
C3127      C3132   1.397       .  A
C3127      H3134   1.084       .  S
C3128      C3129   1.411       .  A
C3129      C3130   1.392       .  A
C3129     Br3136   1.919       .  S
C3130      C3131   1.398       .  A
C3130      H3135   1.084       .  S
C3131      C3132   1.404       .  A
C3132     Br3133   1.918       .  S
C3137      C3138   1.399       .  A
C3137      C3142   1.397       .  A
C3137      H3144   1.082       .  S
C3138      C3139   1.408       .  A
C3139      C3140   1.402       .  A
C3139     Br3146   1.919       .  S
C3140      C3141   1.406       .  A
C3140      H3145   1.083       .  S
C3141      C3142   1.410       .  A
C3142     Br3143   1.922       .  S
C3147      C3148   1.398       .  A
C3147      C3152   1.391       .  A
C3147      H3154   1.084       .  S
C3148      C3149   1.408       .  A
C3149      C3150   1.408       .  A
C3149     Br3156   1.917       .  S
C3150      C3151   1.412       .  A
C3150      H3155   1.082       .  S
C3151      C3152   1.418       .  A
C3152     Br3153   1.922       .  S
C3157      C3158   1.401       .  A
C3157      C3162   1.393       .  A
C3157      H3164   1.084       .  S
C3158      C3159   1.410       .  A
C3159      C3160   1.403       .  A
C3159     Br3166   1.917       .  S
C3160      C3161   1.403       .  A
C3160      H3165   1.083       .  S
C3161      C3162   1.408       .  A
C3162     Br3163   1.919       .  S
C3167      C3168   1.398       .  A
C3167      C3172   1.394       .  A
C3167      H3174   1.084       .  S
C3168      C3169   1.408       .  A
C3169      C3170   1.402       .  A
C3169     Br3176   1.919       .  S
C3170      C3171   1.403       .  A
C3170      H3175   1.083       .  S
C3171      C3172   1.410       .  A
C3172     Br3173   1.919       .  S
C3177      C3178   1.392       .  A
C3177      C3182   1.390       .  A
C3177      H3184   1.085       .  S
C3178      C3179   1.406       .  A
C3179      C3180   1.406       .  A
C3180      C3181   1.409       .  A
C3181      C3182   1.422       .  A
C3182     Br3183   1.913       .  S
C3187      C3188   1.400       .  A
C3187      C3192   1.396       .  A
C3187      H3194   1.083       .  S
C3188      C3189   1.409       .  A
C3189      C3190   1.401       .  A
C3190      C3191   1.403       .  A
C3190      H3195   1.084       .  S
C3191      C3192   1.410       .  A
C3192     Br3193   1.920       .  S
C3197      C3198   1.408       .  A
C3197      C3202   1.407       .  A
C3198      C3199   1.418       .  A
C3199      C3200   1.389       .  A
C3199     Br3206   1.924       .  S
C3200      C3201   1.398       .  A
C3200      H3205   1.084       .  S
C3201      C3202   1.411       .  A
C3207      C3208   1.402       .  A
C3207      C3212   1.389       .  A
C3207      H3214   1.084       .  S
C3208      C3209   1.414       .  A
C3209      C3210   1.406       .  A
C3209     Br3216   1.920   1_565  S
C3210      C3211   1.405       .  A
C3210      H3215   1.083       .  S
C3211      C3212   1.410       .  A
C3212     Br3213   1.923       .  S
