geometry optimzed in LAMMPS
_audit_creation_date              2020-12-01 
_audit_creation_method            'lammps2cif' 
_symmetry_space_group_name_H-M    'P1' 
_symmetry_Int_Tables_number       1 
_symmetry_cell_setting            triclinic 
loop_ 
_symmetry_equiv_pos_as_xyz 
  x,y,z 
_cell_length_a                    23.79644831 
_cell_length_b                    23.58068364835951 
_cell_length_c                    24.418006567453236 
_cell_angle_alpha                 90.05472678472178 
_cell_angle_beta                  90.25935718487744 
_cell_angle_gamma                 86.02781053022302 
loop_ 
_atom_site_label 
_atom_site_type_symbol 
_atom_site_fract_x 
_atom_site_fract_y 
_atom_site_fract_z 
_atom_site_charge 
Zr1        Zr  0.79114190  0.68012021  0.83868680     2.17500
O2          O  0.84510520  0.60885151  0.89109610    -0.51300
O3          O  0.76470607  0.70657154  0.93539086    -0.74500
O4          O  0.89506588  0.69078441  0.83992986    -0.81300
O5          O  0.66690416  0.58725680  0.79731115    -0.83000
O6          O  0.92779795  0.76124875  0.78820269    -0.78600
O7          O  0.75602711  0.58292399  0.83134873    -0.90300
O8          O  0.77002176  0.79694817  0.91749298    -0.76200
O9          O  0.79982995  0.78019583  0.83416039    -0.85700
O10         O  0.69584716  0.72069600  0.84703570    -0.85400
O11         O  0.82947196  0.70025203  0.75004288    -0.72200
O12         O  0.73762426  0.64792916  0.76274672    -0.84300
Zr13       Zr  0.69364538  0.81285099  0.67775139     2.26400
Zr14       Zr  0.83871258  0.80193142  0.74658011     2.06300
Zr15       Zr  0.64334908  0.68838095  0.77001278     2.10000
Zr16       Zr  0.70588281  0.82071047  0.84211275     1.78800
O17         O  0.58533746  0.61921291  0.72766564    -0.93100
O18         O  0.74121509  0.91061169  0.87131915    -0.40900
O19         O  0.65334435  0.78946610  0.76488812    -0.77500
O20         O  0.74467156  0.84486912  0.75709977    -0.96200
O21         O  0.78655594  0.76791296  0.66903543    -0.89500
O22         O  0.68056968  0.71281294  0.68334254    -0.92400
C23         C  0.75946149  0.75857704  0.95175229     1.01400
C24         C  0.71019010  0.55866991  0.81866264     1.14300
C25         C  0.93609907  0.71839294  0.82062231     1.05100
O26         O  0.87900568  0.87212226  0.80551164    -0.94500
O27         O  0.82672433  0.89382803  0.69621715    -0.90300
O28         O  0.73362453  0.90813180  0.67545736    -0.83400
C29         C  0.78431768  0.92531032  0.67698828     1.11700
O30         O  0.81977384  0.57349818  0.66679812    -0.96500
Zr31       Zr  0.77302377  0.66818304  0.67531219     1.88900
O32         O  0.72996823  0.78536665  0.58367443    -0.73100
O33         O  0.91214938  0.79654581  0.67724287    -0.52400
O34         O  0.86228283  0.66290247  0.62650446    -0.97100
O35         O  0.72305424  0.58406637  0.65240543    -0.54300
O36         O  0.72054797  0.69388268  0.59333956    -0.73700
C37         C  0.73383370  0.73451091  0.56360099     0.98700
O38         O  0.62518162  0.87986068  0.63307049    -0.62500
O39         O  0.57814148  0.69396785  0.84692273    -0.57300
O40         O  0.59117560  0.80124281  0.67042572    -0.94000
O41         O  0.55796263  0.73133642  0.72312005    -0.92400
O42         O  0.62368963  0.81720452  0.90004660    -0.92800
O43         O  0.64139330  0.90559204  0.84084962    -0.91500
C44         C  0.55037434  0.77297784  0.68901140     1.17500
H45         H  0.67826474  0.70897132  0.88009489     0.33500
H46         H  0.74548975  0.88516952  0.76311200     0.44300
H47         H  0.65292634  0.70147141  0.65713570     0.37800
H48         H  0.86586289  0.68021368  0.74573844     0.34300
H49         H  0.72718938  0.91651220  0.90910046     0.26100
H50         H  0.93857888  0.82506089  0.68851687     0.32000
H51         H  0.89190718  0.66504478  0.65483028     0.38000
H52         H  0.59428880  0.80293785  0.87587984     0.32400
H53         H  0.54432846  0.71636227  0.83302557     0.31300
H54         H  0.55543309  0.61337903  0.75477840     0.33000
H55         H  0.68895798  0.59830533  0.63195891     0.31900
H56         H  0.62105938  0.90355933  0.80549657     0.35900
H57         H  0.63872149  0.91840547  0.63665865     0.28700
H58         H  0.86700815  0.63006845  0.91785032     0.32900
H59         H  0.81329703  0.55479644  0.70232878     0.35800
H60         H  0.56589459  0.65491165  0.85092327     0.28400
H61         H  0.62756764  0.87066541  0.59359428     0.41200
H62         H  0.90650031  0.89031109  0.78214873     0.31300
H63         H  0.78241099  0.90259881  0.87556091     0.38900
H64         H  0.70834422  0.57057636  0.68758849     0.30800
H65         H  0.93334371  0.75941656  0.68315605     0.30800
H66         H  0.87322034  0.59149223  0.86514110     0.31100
C67         C  0.76896315  0.27442689  0.49614300    -0.02400
C68         C  0.19210036  0.28708119  0.50409746    -0.02400
C69         C  0.76785134  0.71651419  0.51190857    -0.02400
C70         C  0.18378789  0.73083850  0.50666773    -0.02400
C71         C  0.25372452  0.50138801  0.86328035    -0.02400
C72         C  0.29314560  0.50029030  0.15668116    -0.02400
C73         C  0.70362457  0.49653747  0.84050199    -0.02400
C74         C  0.72795653  0.50296031  0.17328567    -0.02400
C75         C  0.48867512  0.80968345  0.23016192    -0.02400
C76         C  0.49809657  0.16587211  0.24977289    -0.02400
C77         C  0.49016803  0.79912631  0.67480758    -0.02400
C78         C  0.50149481  0.17500473  0.68668059    -0.02400
Zr79       Zr  0.29711538  0.20144114  0.66344700     2.17500
O80         O  0.34485874  0.17375005  0.57824503    -0.51300
O81         O  0.27407607  0.09865024  0.65782725    -0.74500
O82         O  0.40108420  0.19245822  0.67442890    -0.81300
O83         O  0.16562548  0.26035641  0.59527995    -0.83000
O84         O  0.43568778  0.22044838  0.75609493    -0.78600
O85         O  0.25817272  0.24339537  0.57555909    -0.90300
O86         O  0.23660915  0.06026918  0.73307637    -0.76200
O87         O  0.31142591  0.16780149  0.75502557    -0.85700
O88         O  0.20587028  0.17901764  0.69412913    -0.85400
O89         O  0.33409007  0.27875048  0.71541491    -0.72200
O90         O  0.23869255  0.28873784  0.66366371    -0.84300
Zr91       Zr  0.19584951  0.30560485  0.83893031     2.26400
Zr92       Zr  0.34721532  0.24493847  0.80756740     2.06300
Zr93       Zr  0.14826619  0.26569035  0.69382572     2.10000
Zr94       Zr  0.21975730  0.14506974  0.78543067     1.78800
O95         O  0.10092262  0.34849822  0.65004037    -0.93100
O96         O  0.28162878  0.08005872  0.83902253    -0.40900
O97         O  0.15895581  0.23051197  0.78563991    -0.77500
O98         O  0.25634924  0.21861634  0.83674554    -0.96200
O99         O  0.28631542  0.33006087  0.80767243    -0.89500
O100        O  0.18251306  0.34155545  0.74806421    -0.92400
C101        C  0.25434909  0.05601094  0.68420675     1.01400
C102        C  0.20704321  0.25915914  0.56102837     1.14300
C103        C  0.44299704  0.20117030  0.70691666     1.05100
O104        O  0.40321862  0.17077984  0.85649348    -0.94500
O105        O  0.33217610  0.25839554  0.90756596    -0.90300
O106        O  0.23920880  0.27468085  0.92834602    -0.83400
C107        C  0.29072510  0.25962430  0.94228071     1.11700
O108        O  0.31032354  0.38599302  0.62655454    -0.96500
Zr109      Zr  0.27332068  0.36426049  0.71659187     1.88900
O110        O  0.21770208  0.40628519  0.85382346    -0.73100
O111        O  0.41030303  0.31920280  0.82979668    -0.52400
O112        O  0.36388388  0.40636711  0.72129714    -0.97100
O113        O  0.21141022  0.43627700  0.67135293    -0.54300
O114        O  0.26606181  0.44091371  0.78294895    -0.73700
C115        C  0.24405792  0.44624946  0.83061864     0.98700
O116        O  0.14142563  0.31688432  0.92285997    -0.62500
O117        O  0.08192347  0.19672241  0.66555607    -0.57300
O118        O  0.09100250  0.31740884  0.82193803    -0.94000
O119        O  0.05898418  0.28717076  0.74006406    -0.92400
O120        O  0.13258313  0.09821077  0.77400991    -0.92800
O121        O  0.17216305  0.12508811  0.87071185    -0.91500
C122        C  0.05011616  0.30841753  0.78777385     1.17500
H123        H  0.18779971  0.15249389  0.67094730     0.33500
H124        H  0.25988984  0.19829588  0.87061425     0.44300
H125        H  0.15608832  0.37455684  0.74785554     0.37800
H126        H  0.36903758  0.28973069  0.70012257     0.34300
H127        H  0.26136481  0.04488114  0.84155457     0.26100
H128        H  0.43246005  0.32432557  0.79615971     0.32000
H129        H  0.35640827  0.44561059  0.70734370     0.38000
H130        H  0.11087108  0.12142497  0.74643774     0.32400
H131        H  0.04652513  0.21934738  0.65653002     0.31300
H132        H  0.06981644  0.33329260  0.62888241     0.33000
H133        H  0.23718229  0.46397986  0.65727461     0.31900
H134        H  0.16088277  0.16290904  0.88634480     0.35900
H135        H  0.11353286  0.34911619  0.91583553     0.28700
H136        H  0.36946745  0.13939408  0.58716195     0.32900
H137        H  0.31884392  0.34852516  0.60901120     0.35800
H138        H  0.09593086  0.18159521  0.62994814     0.28400
H139        H  0.11894981  0.28313932  0.92456692     0.41200
H140        H  0.37559587  0.14411639  0.86896313     0.31300
H141        H  0.31428603  0.06971532  0.81518812     0.38900
H142        H  0.19062817  0.45688307  0.70113522     0.30800
H143        H  0.38602551  0.35487249  0.83296346     0.30800
H144        H  0.37110056  0.20372936  0.57112013     0.31100
Zr145      Zr  0.32763668  0.70041768  0.18524484     2.17500
O146        O  0.40859200  0.65141397  0.14008616    -0.51300
O147        O  0.31688632  0.72968277  0.08671523    -0.74500
O148        O  0.31754586  0.59714968  0.17590726    -0.81300
O149        O  0.39190827  0.82187319  0.19456739    -0.83000
O150        O  0.23762397  0.56927668  0.21512391    -0.78600
O151        O  0.42205061  0.73282751  0.21113455    -0.90300
O152        O  0.22841717  0.76316868  0.06445205    -0.76200
O153        O  0.22885156  0.69398492  0.17136549    -0.85700
O154        O  0.28820320  0.79548278  0.16640307    -0.85400
O155        O  0.28998443  0.66234811  0.26909825    -0.72200
O156        O  0.34334346  0.75518061  0.26728972    -0.84300
Zr157      Zr  0.16693634  0.80586355  0.31594465     2.26400
Zr158      Zr  0.19046521  0.65722833  0.25382215     2.06300
Zr159      Zr  0.30484814  0.84901230  0.24684669     2.10000
Zr160      Zr  0.18985991  0.78793187  0.15292961     1.78800
O161        O  0.37375269  0.88355061  0.30993131    -0.93100
O162        O  0.12716121  0.73705311  0.09460862    -0.40900
O163        O  0.20511404  0.84427482  0.23301177    -0.77500
O164        O  0.15182728  0.75061843  0.23308930    -0.96200
O165        O  0.20641611  0.71184848  0.33445899    -0.89500
O166        O  0.26545760  0.81332086  0.33025557    -0.92400
C167        C  0.27984875  0.75206628  0.05200122     1.01400
C168        C  0.43278716  0.78540466  0.20790748     1.14300
C169        C  0.28307919  0.55864005  0.18703726     1.05100
O170        O  0.12666561  0.61908296  0.18740592    -0.94500
O171        O  0.10288399  0.68451662  0.30778205    -0.90300
O172        O  0.07080506  0.77512244  0.29963686    -0.83400
C173        C  0.06121140  0.72221582  0.29949730     1.11700
O174        O  0.39868977  0.67294316  0.35611849    -0.96500
Zr175      Zr  0.30420742  0.71937822  0.34977075     1.88900
O176        O  0.17505455  0.77661727  0.41507539    -0.73100
O177        O  0.18117687  0.57874906  0.31674926    -0.52400
O178        O  0.29855791  0.62718873  0.39320168    -0.97100
O179        O  0.36407102  0.77360706  0.40820252    -0.54300
O180        O  0.25903412  0.73291457  0.43899877    -0.73700
C181        C  0.20882321  0.75171341  0.45126298     0.98700
O182        O  0.09337992  0.86014468  0.36690034    -0.62500
O183        O  0.32105712  0.93049223  0.18906651    -0.57300
O184        O  0.17703383  0.90936587  0.31372351    -0.94000
O185        O  0.25305193  0.93937924  0.26941665    -0.92400
O186        O  0.18875868  0.88401252  0.11673379    -0.92800
O187        O  0.09379666  0.83039746  0.14492539    -0.91500
C188        C  0.20753636  0.94938647  0.29698689     1.17500
H189        H  0.30474352  0.81484716  0.13628520     0.33500
H190        H  0.11360245  0.74857311  0.21984936     0.44300
H191        H  0.27025754  0.83818355  0.36087831     0.37800
H192        H  0.30754812  0.62490739  0.27594816     0.34300
H193        H  0.12213911  0.76017093  0.06086691     0.26100
H194        H  0.22021555  0.56737009  0.32841799     0.32000
H195        H  0.31705943  0.59897988  0.36791461     0.38000
H196        H  0.16288191  0.88451205  0.08481818     0.32400
H197        H  0.35627565  0.94511628  0.20333048     0.31300
H198        H  0.37612319  0.92408945  0.30050868     0.33000
H199        H  0.33856058  0.79628705  0.43298790     0.31900
H200        H  0.08524703  0.84753297  0.18121746     0.35900
H201        H  0.07343514  0.83183606  0.38782272     0.28700
H202        H  0.42671390  0.68115145  0.11924740     0.32900
H203        H  0.40355543  0.66199518  0.39509220     0.35800
H204        H  0.33147380  0.91426342  0.15281905     0.28400
H205        H  0.11358048  0.88072008  0.39542144     0.41200
H206        H  0.12773497  0.64459767  0.15549346     0.31300
H207        H  0.14885761  0.70190156  0.08270112     0.38900
H208        H  0.37870351  0.80195666  0.38322305     0.30800
H209        H  0.16344052  0.59639924  0.34975742     0.30800
H210        H  0.39279400  0.62753317  0.11126970     0.31100
Zr211      Zr  0.80245684  0.29962924  0.17360959     2.17500
O212        O  0.86285593  0.34070576  0.10626881    -0.51300
O213        O  0.76600389  0.40305406  0.17436710    -0.74500
O214        O  0.78034209  0.26453811  0.07617956    -0.81300
O215        O  0.92544836  0.27115058  0.28902728    -0.83000
O216        O  0.68647893  0.26020024  0.08250599    -0.78600
O217        O  0.90252627  0.29877316  0.20227199    -0.90300
O218        O  0.72831621  0.44209822  0.25153166    -0.76200
O219        O  0.70628126  0.32736466  0.19183675    -0.85700
O220        O  0.79597757  0.33116753  0.26699691    -0.85400
O221        O  0.75688059  0.21224059  0.16523049    -0.72200
O222        O  0.83974763  0.22254284  0.23249740    -0.84300
Zr223      Zr  0.68459091  0.19649132  0.32955361     2.26400
Zr224      Zr  0.66018371  0.24201680  0.17828138     2.06300
Zr225      Zr  0.83182466  0.25515110  0.32559274     2.10000
Zr226      Zr  0.69864284  0.35549595  0.28615312     1.78800
O227        O  0.90741458  0.20143152  0.37456193    -0.93100
O228        O  0.60824248  0.39236288  0.24863593    -0.40900
O229        O  0.73478762  0.28062867  0.34309179    -0.77500
O230        O  0.64808504  0.27342923  0.27166167    -0.96200
O231        O  0.69352967  0.16470876  0.23726778    -0.89500
O232        O  0.78316418  0.17085146  0.31503037    -0.92400
C233        C  0.74500080  0.44672632  0.20283494     1.01400
C234        C  0.93894922  0.28980178  0.24170421     1.14300
C235        C  0.73235506  0.25208693  0.05449773     1.05100
O236        O  0.59035186  0.31451272  0.14523836    -0.94500
O237        O  0.56650108  0.22087948  0.20427688    -0.90300
O238        O  0.58808134  0.18726825  0.28953827    -0.83400
C239        C  0.55297319  0.19673921  0.24862371     1.11700
O240        O  0.84363834  0.10665923  0.14255534    -0.96500
Zr241      Zr  0.79075378  0.13723809  0.22392259     1.88900
O242        O  0.71275384  0.09482918  0.34502703    -0.73100
O243        O  0.62776479  0.15745164  0.13477956    -0.52400
O244        O  0.74016177  0.06714039  0.17415182    -0.97100
O245        O  0.88615341  0.09987539  0.24659204    -0.54300
O246        O  0.77411307  0.05726896  0.28179191    -0.73700
C247        C  0.74518872  0.05333951  0.32543756     0.98700
O248        O  0.62308284  0.16728122  0.40224870    -0.62500
O249        O  0.84992036  0.34194711  0.37415036    -0.57300
O250        O  0.70783317  0.24060432  0.42010319    -0.94000
O251        O  0.80038835  0.22023143  0.41513782    -0.92400
O252        O  0.72071855  0.43398360  0.34551944    -0.92800
O253        O  0.64218421  0.36170293  0.36922866    -0.91500
C254        C  0.75734483  0.24034612  0.44246680     1.17500
H255        H  0.81763944  0.36403659  0.27135508     0.33500
H256        H  0.60924871  0.28477522  0.27967298     0.44300
H257        H  0.79964198  0.14361581  0.34098514     0.37800
H258        H  0.76308119  0.19248590  0.13152427     0.34300
H259        H  0.60022912  0.42941188  0.26706987     0.26100
H260        H  0.61085767  0.17049287  0.09978728     0.32000
H261        H  0.76716506  0.03348318  0.17061863     0.38000
H262        H  0.68685245  0.46090130  0.34433962     0.32400
H263        H  0.87590645  0.36161270  0.35043095     0.31300
H264        H  0.93084843  0.23045631  0.39043563     0.33000
H265        H  0.88579113  0.05821301  0.24176203     0.31900
H266        H  0.60279117  0.35932382  0.35675693     0.35900
H267        H  0.60344707  0.13541397  0.38635736     0.28700
H268        H  0.83675430  0.35994705  0.07942158     0.32900
H269        H  0.86709471  0.13858099  0.13408819     0.35800
H270        H  0.81426262  0.36596232  0.37235459     0.28400
H271        H  0.64875165  0.14887122  0.43000875     0.41200
H272        H  0.61182170  0.34139713  0.12398434     0.31300
H273        H  0.61608288  0.40224648  0.21020080     0.38900
H274        H  0.88969381  0.10538257  0.28663289     0.30800
H275        H  0.66221396  0.13440278  0.12445796     0.30800
H276        H  0.88065537  0.30770925  0.08623815     0.31100
Zr277      Zr  0.70523344  0.18069739  0.66191300     2.17500
O278        O  0.65297581  0.13659162  0.58881725    -0.51300
O279        O  0.74571882  0.07905599  0.65378735    -0.74500
O280        O  0.73008243  0.21611476  0.56953231    -0.81300
O281        O  0.56757102  0.20762939  0.75799369    -0.83000
O282        O  0.81531784  0.25179671  0.58438571    -0.78600
O283        O  0.60169665  0.18101633  0.67453935    -0.90300
O284        O  0.79928453  0.04683308  0.72535347    -0.76200
O285        O  0.80202506  0.16623572  0.68838735    -0.85700
O286        O  0.70322633  0.14700454  0.75400729    -0.85400
O287        O  0.74329743  0.27343391  0.66084385    -0.72200
O288        O  0.65687760  0.25430133  0.71651712    -0.84300
Zr289      Zr  0.79240582  0.29860511  0.82974073     2.26400
Zr290      Zr  0.84145235  0.25775381  0.68374929     2.06300
Zr291      Zr  0.65620741  0.22118525  0.80908306     2.10000
Zr292      Zr  0.79993280  0.13309213  0.78092369     1.78800
O293        O  0.57974620  0.27838737  0.85241727    -0.93100
O294        O  0.89891213  0.10498029  0.76586621    -0.40900
O295        O  0.75287143  0.20705487  0.83426009    -0.77500
O296        O  0.84062694  0.22349273  0.77642230    -0.96200
O297        O  0.79339220  0.33213743  0.73805078    -0.89500
O298        O  0.69478904  0.31250457  0.80543594    -0.92400
C299        C  0.77743064  0.03911069  0.67805853     1.01400
C300        C  0.56004130  0.19166842  0.70804081     1.14300
C301        C  0.77305280  0.24146907  0.55223250     1.05100
O302        O  0.91729268  0.19034813  0.65378596    -0.94500
O303        O  0.92799506  0.28808755  0.73265871    -0.90300
O304        O  0.89251033  0.31366346  0.81545632    -0.83400
C305        C  0.93431463  0.30720243  0.78201365     1.11700
O306        O  0.63936741  0.36370841  0.63044053    -0.96500
Zr307      Zr  0.69572066  0.34571068  0.71310239     1.88900
O308        O  0.75292007  0.40056798  0.83215795    -0.73100
O309        O  0.87706236  0.33850732  0.63592853    -0.52400
O310        O  0.74300335  0.40647856  0.64993173    -0.97100
O311        O  0.59850862  0.37832319  0.73298005    -0.54300
O312        O  0.70265039  0.43536188  0.75961480    -0.73700
C313        C  0.72411006  0.44213166  0.80684568     0.98700
O314        O  0.84583911  0.32115666  0.91169784    -0.62500
O315        O  0.62007473  0.13618011  0.84862258    -0.57300
O316        O  0.76969077  0.26937838  0.92405926    -0.94000
O317        O  0.69072098  0.22497849  0.90543585    -0.92400
O318        O  0.75942701  0.06080191  0.83694509    -0.92800
O319        O  0.84830412  0.11955901  0.86866750    -0.91500
C320        C  0.72860850  0.24098217  0.94001077     1.17500
H321        H  0.68467197  0.11189351  0.75574004     0.33500
H322        H  0.87859831  0.21574265  0.78968993     0.44300
H323        H  0.67397821  0.33850615  0.82972005     0.37800
H324        H  0.73669207  0.29424965  0.62759940     0.34300
H325        H  0.90589755  0.06873497  0.78598337     0.26100
H326        H  0.87429149  0.36997751  0.66289665     0.32000
H327        H  0.72761765  0.44577455  0.65742963     0.38000
H328        H  0.75051337  0.07945566  0.87252424     0.32400
H329        H  0.60574566  0.11451704  0.81739535     0.31300
H330        H  0.56229865  0.25173445  0.87746081     0.33000
H331        H  0.59491312  0.37426821  0.77310067     0.31900
H332        H  0.87169428  0.15250566  0.87229381     0.35900
H333        H  0.87611854  0.29039650  0.91571979     0.28700
H334        H  0.68168959  0.12170455  0.56226620     0.32900
H335        H  0.63419217  0.40561011  0.62728666     0.35800
H336        H  0.65381170  0.11306550  0.86151260     0.28400
H337        H  0.86553590  0.35571393  0.90331389     0.41200
H338        H  0.89968272  0.16598984  0.62647293     0.31300
H339        H  0.90063454  0.09420637  0.72671254     0.38900
H340        H  0.57560480  0.34843018  0.71788020     0.30800
H341        H  0.91800431  0.32900944  0.63179937     0.30800
H342        H  0.63194781  0.16826787  0.56935481     0.31100
C343        C  0.72645708  0.77851747  0.00401539    -0.02400
C344        C  0.72716046  0.21485424  0.99952326    -0.02400
C345        C  0.30011343  0.78155051  0.99978420    -0.02400
C346        C  0.30334450  0.22714489  0.99722764    -0.02400
Zr347      Zr  0.19868039  0.70550306  0.84503387     2.17500
O348        O  0.15883890  0.68702212  0.93449646    -0.51300
O349        O  0.21908151  0.60136438  0.85764630    -0.74500
O350        O  0.09477958  0.70746937  0.84422788    -0.81300
O351        O  0.32639686  0.76062733  0.90577054    -0.83000
O352        O  0.05876186  0.72911369  0.76000927    -0.78600
O353        O  0.23841479  0.74057088  0.93109211    -0.90300
O354        O  0.25882787  0.55888475  0.78269219    -0.76200
O355        O  0.18039395  0.67063781  0.75545839    -0.85700
O356        O  0.28954580  0.67078954  0.81148383    -0.85400
O357        O  0.15733756  0.78551526  0.79284412    -0.72200
O358        O  0.25755598  0.78393102  0.84091328    -0.84300
Zr359      Zr  0.29044189  0.79458742  0.66499455     2.26400
Zr360      Zr  0.14187447  0.75040451  0.70169324     2.06300
Zr361      Zr  0.34749859  0.74960744  0.80722882     2.10000
Zr362      Zr  0.27067031  0.63683471  0.72181062     1.78800
O363        O  0.40948900  0.81581504  0.84850766    -0.93100
O364        O  0.19559566  0.58959908  0.67581914    -0.40900
O365        O  0.33025677  0.71486931  0.71737555    -0.77500
O366        O  0.23277856  0.71432663  0.66908482    -0.96200
O367        O  0.20022379  0.82988959  0.69959059    -0.89500
O368        O  0.30789699  0.82892932  0.75484311    -0.92400
C369        C  0.24070033  0.55708288  0.83168991     1.01400
C370        C  0.28754489  0.75700944  0.94252280     1.14300
C371        C  0.05261045  0.71407728  0.81082849     1.05100
O372        O  0.08849787  0.68100379  0.65380928    -0.94500
O373        O  0.15471976  0.75686676  0.59980582    -0.90300
O374        O  0.24471460  0.77269167  0.57621482    -0.83400
C375        C  0.19444061  0.75999607  0.56330589     1.11700
O376        O  0.19098930  0.88879764  0.88376550    -0.96500
Zr377      Zr  0.21802257  0.86274935  0.79047249     1.88900
O378        O  0.27445251  0.90073722  0.66043565    -0.73100
O379        O  0.07245011  0.82770149  0.67921120    -0.52400
O380        O  0.12842222  0.91864524  0.79915161    -0.97100
O381        O  0.28624770  0.92259700  0.83145187    -0.54300
O382        O  0.22192555  0.94141785  0.72881874    -0.73700
C383        C  0.24800705  0.94460597  0.68360182     0.98700
O384        O  0.35346027  0.81675199  0.59045623    -0.62500
O385        O  0.41136973  0.67096174  0.83905901    -0.57300
O386        O  0.39408163  0.77303926  0.66066884    -0.94000
O387        O  0.42961413  0.76317408  0.74695080    -0.92400
O388        O  0.35835266  0.57717235  0.72384464    -0.92800
O389        O  0.31022411  0.60088624  0.63554343    -0.91500
C390        C  0.43588458  0.77137579  0.69488436     1.17500
H391        H  0.30812720  0.64203331  0.83463293     0.33500
H392        H  0.23018391  0.69483478  0.63490486     0.44300
H393        H  0.33363876  0.85868155  0.75345288     0.37800
H394        H  0.12232479  0.80042099  0.80879756     0.34300
H395        H  0.21473988  0.56275511  0.64975304     0.26100
H396        H  0.07476724  0.85511613  0.70969246     0.32000
H397        H  0.11722398  0.92945879  0.76130659     0.38000
H398        H  0.38438457  0.59882754  0.74611402     0.32400
H399        H  0.44629866  0.67390684  0.81770209     0.31300
H400        H  0.43657307  0.79162192  0.87064534     0.33000
H401        H  0.30196980  0.94418939  0.80105234     0.31900
H402        H  0.32694035  0.63394647  0.61869619     0.35900
H403        H  0.33857638  0.80122035  0.55610944     0.28700
H404        H  0.13584906  0.65436107  0.92804943     0.32900
H405        H  0.16548982  0.85958715  0.89524288     0.35800
H406        H  0.42176227  0.68152358  0.87684413     0.28400
H407        H  0.34925053  0.85851583  0.58620562     0.41200
H408        H  0.05679000  0.70369296  0.63628545     0.31300
H409        H  0.17988101  0.56508128  0.70397009     0.38900
H410        H  0.31778910  0.89594275  0.84360710     0.30800
H411        H  0.08859145  0.84682962  0.64744563     0.30800
H412        H  0.13113059  0.71933878  0.94215062     0.31100
C413        C  0.79489511  0.98216516  0.64631782    -0.02400
C414        C  0.24080491  0.00181197  0.65215346    -0.02400
C415        C  0.75758090  0.00068582  0.36152429    -0.02400
C416        C  0.19449400  0.00821543  0.32432682    -0.02400
Zr417      Zr  0.81941691  0.79889037  0.33655618     2.17500
O418        O  0.89263565  0.84138703  0.38960843    -0.51300
O419        O  0.80093569  0.76788291  0.43193025    -0.74500
O420        O  0.79341348  0.90218246  0.34734376    -0.81300
O421        O  0.90935246  0.68682877  0.26607136    -0.83000
O422        O  0.71191333  0.93279455  0.30453594    -0.78600
O423        O  0.92280514  0.76513333  0.31681930    -0.90300
O424        O  0.70904859  0.75511642  0.43834412    -0.76200
O425        O  0.71784373  0.80635480  0.34230226    -0.85700
O426        O  0.79109525  0.70297472  0.34729964    -0.85400
O427        O  0.78313857  0.84387786  0.25287463    -0.72200
O428        O  0.84251280  0.74752344  0.25484332    -0.84300
Zr429      Zr  0.67679915  0.70673966  0.18830039     2.26400
Zr430      Zr  0.68196171  0.84913157  0.25809323     2.06300
Zr431      Zr  0.81479755  0.65418936  0.26363488     2.10000
Zr432      Zr  0.69083867  0.71037411  0.35190475     1.78800
O433        O  0.88070066  0.59399996  0.20941252    -0.93100
O434        O  0.61957933  0.69478966  0.42132460    -0.40900
O435        O  0.71437208  0.65980178  0.26958391    -0.77500
O436        O  0.65260062  0.75599778  0.27301231    -0.96200
O437        O  0.70947397  0.79956453  0.17625500    -0.89500
O438        O  0.77718888  0.69694448  0.18119339    -0.92400
C439        C  0.75795760  0.75237404  0.45931152     1.01400
C440        C  0.94261950  0.72177915  0.28777025     1.14300
C441        C  0.75487361  0.94165651  0.33437996     1.05100
O442        O  0.60608498  0.90724353  0.30108153    -0.94500
O443        O  0.58492630  0.83276973  0.22974423    -0.90300
O444        O  0.57342772  0.74379427  0.19857002    -0.83400
C445        C  0.55242152  0.79353025  0.21455705     1.11700
O446        O  0.90170860  0.82939254  0.18790446    -0.96500
Zr447      Zr  0.81065142  0.79015484  0.17279341     1.88900
O448        O  0.70509205  0.73593768  0.09339662    -0.73100
O449        O  0.68103819  0.91829335  0.18380679    -0.52400
O450        O  0.80203444  0.88453485  0.13190242    -0.97100
O451        O  0.88835645  0.73921399  0.12544196    -0.54300
O452        O  0.79025570  0.77030745  0.07974295    -0.73700
C453        C  0.74315852  0.75648572  0.06179143     0.98700
O454        O  0.61043829  0.65844501  0.13188661    -0.62500
O455        O  0.83476687  0.59132206  0.34169423    -0.57300
O456        O  0.69764266  0.60183439  0.18791020    -0.94000
O457        O  0.78028839  0.56811914  0.22677000    -0.92400
O458        O  0.72312083  0.61153505  0.36701140    -0.92800
O459        O  0.59475824  0.68102386  0.34389609    -0.91500
C460        C  0.73463345  0.56065452  0.20076299     1.17500
H461        H  0.80850226  0.68368147  0.37845110     0.33500
H462        H  0.61414522  0.75657480  0.28440795     0.44300
H463        H  0.78814846  0.67343587  0.15008513     0.37800
H464        H  0.79685671  0.88117240  0.24842837     0.34300
H465        H  0.63682925  0.66630554  0.44718267     0.26100
H466        H  0.71880735  0.93328808  0.18420232     0.32000
H467        H  0.82237470  0.90935662  0.15672930     0.38000
H468        H  0.69012153  0.58991236  0.35779543     0.32400
H469        H  0.84028858  0.55264639  0.32605297     0.31300
H470        H  0.88498580  0.61518208  0.17486270     0.33000
H471        H  0.89388683  0.76163321  0.09184926     0.31900
H472        H  0.59795220  0.64736543  0.31951479     0.35900
H473        H  0.58795104  0.68919663  0.11272118     0.28700
H474        H  0.87330516  0.85781144  0.42238696     0.32900
H475        H  0.91167030  0.84673941  0.15265775     0.35800
H476        H  0.87204943  0.60065281  0.35585711     0.28400
H477        H  0.63358090  0.63936711  0.10276842     0.41200
H478        H  0.59589326  0.88485828  0.33333082     0.31300
H479        H  0.61340185  0.73012992  0.44304118     0.38900
H480        H  0.87412515  0.70320745  0.11213537     0.30800
H481        H  0.67914137  0.89668858  0.14917449     0.30800
H482        H  0.90250728  0.87461133  0.36790741     0.31100
C483        C  0.99633765  0.68973861  0.83144428    -0.02400
C484        C  0.00557946  0.70034317  0.27640540    -0.02400
C485        C  0.98972973  0.33328594  0.80274336    -0.02400
C486        C  0.99482353  0.31898952  0.23410168    -0.02400
Zr487      Zr  0.16408122  0.21448375  0.31440918     2.17500
O488        O  0.08598426  0.17542388  0.36281297    -0.51300
O489        O  0.17476496  0.24229549  0.41390830    -0.74500
O490        O  0.17735651  0.10950797  0.31665364    -0.81300
O491        O  0.09184836  0.33605366  0.24613821    -0.83000
O492        O  0.24983907  0.06867600  0.26734294    -0.78600
O493        O  0.06816638  0.25178237  0.28073358    -0.90300
O494        O  0.26345891  0.26011350  0.43861868    -0.76200
O495        O  0.26172398  0.19252663  0.33061671    -0.85700
O496        O  0.20147032  0.30483602  0.33416959    -0.85400
O497        O  0.20257345  0.17353431  0.22996888    -0.72200
O498        O  0.15650405  0.27217689  0.23402447    -0.84300
Zr499      Zr  0.33243835  0.29544327  0.18849409     2.26400
Zr500      Zr  0.30106244  0.15212571  0.24740751     2.06300
Zr501      Zr  0.19166952  0.36055622  0.25240852     2.10000
Zr502      Zr  0.29967684  0.28190809  0.35032569     1.78800
O503        O  0.12727309  0.43067289  0.20739612    -0.93100
O504        O  0.36457772  0.21518314  0.39895791    -0.40900
O505        O  0.29023441  0.34000948  0.26945575    -0.77500
O506        O  0.33902422  0.23997403  0.27144119    -0.96200
O507        O  0.28988769  0.20919769  0.16641730    -0.89500
O508        O  0.23462647  0.32063159  0.17067304    -0.92400
C509        C  0.21178748  0.25707579  0.45017141     1.01400
C510        C  0.05464221  0.29942480  0.25601009     1.14300
C511        C  0.20648932  0.06524728  0.29783884     1.05100
O512        O  0.35731633  0.09771755  0.31527075    -0.94500
O513        O  0.40208401  0.15352610  0.23227569    -0.90300
O514        O  0.42723332  0.24233451  0.21156698    -0.83400
C515        C  0.43963242  0.19011638  0.22759061     1.11700
O516        O  0.09743636  0.20035833  0.14272424    -0.96500
Zr517      Zr  0.19155639  0.23444395  0.15079359     1.88900
O518        O  0.32047558  0.26479936  0.09026182    -0.73100
O519        O  0.31956359  0.08376660  0.17401870    -0.52400
O520        O  0.18904134  0.14693477  0.09821333    -0.97100
O521        O  0.12284117  0.30582624  0.11297769    -0.54300
O522        O  0.23083268  0.25432284  0.06279062    -0.73700
C523        C  0.28329247  0.25380780  0.05264863     0.98700
O524        O  0.41272911  0.34485992  0.15602119    -0.62500
O525        O  0.18039107  0.42662332  0.32902644    -0.57300
O526        O  0.32151854  0.40080720  0.17827698    -0.94000
O527        O  0.23907680  0.43930079  0.21328597    -0.92400
O528        O  0.30500965  0.37442663  0.39298517    -0.92800
O529        O  0.39299904  0.31734320  0.36087372    -0.91500
C530        C  0.28550615  0.44376091  0.18757826     1.17500
H531        H  0.18253168  0.32536869  0.36373052     0.33500
H532        H  0.37532394  0.23486393  0.28852716     0.44300
H533        H  0.23026698  0.34679297  0.14028875     0.37800
H534        H  0.18375773  0.14002091  0.22022751     0.34300
H535        H  0.37119801  0.23302893  0.43493209     0.26100
H536        H  0.34494228  0.10282470  0.14914055     0.32000
H537        H  0.17818221  0.11770083  0.12443913     0.38000
H538        H  0.31227624  0.40085580  0.36272262     0.32400
H539        H  0.21066872  0.41563726  0.35551354     0.31300
H540        H  0.11017517  0.45414833  0.23737749     0.33000
H541        H  0.13449279  0.31222961  0.07476175     0.31900
H542        H  0.40271192  0.33083390  0.32392577     0.35900
H543        H  0.43876866  0.34642224  0.18768109     0.28700
H544        H  0.10369496  0.15397023  0.39400116     0.32900
H545        H  0.08740230  0.20356431  0.10338830     0.35800
H546        H  0.19176206  0.46289840  0.31372422     0.28400
H547        H  0.43250514  0.31875619  0.12961239     0.41200
H548        H  0.37936539  0.06800978  0.29420754     0.31300
H549        H  0.34288056  0.18199063  0.40747994     0.38900
H550        H  0.12919201  0.34174738  0.13228771     0.30800
H551        H  0.34402917  0.05293385  0.19101827     0.30800
H552        H  0.07230945  0.14583211  0.33827241     0.31100
C553        C  0.99698849  0.37194820  0.96156217     0.18800
C554        C  0.99754867  0.42229613  0.99239669    -0.19300
C555        C  0.99613549  0.42093511  0.04974895    -0.11600
C556        C  0.99475653  0.36913355  0.07800714     0.21000
C557        C  0.99413588  0.31868606  0.04716225    -0.21000
C558        C  0.99554362  0.32003267  0.98988650    -0.11800
C559        C  0.99093292  0.37001060  0.13916031    -0.16000
C560        C  0.00293936  0.32389940  0.17148045    -0.29800
C561        C  0.99945768  0.37555337  0.90041867    -0.04100
C562        C  0.98736162  0.33275201  0.86606275    -0.40600
H563        H  0.99885233  0.46299724  0.97204237     0.12200
H564        H  0.99624368  0.46062442  0.07213977     0.11800
H565        H  0.99140185  0.27788132  0.06666646     0.11200
H566        H  0.99617287  0.27989063  0.96856336     0.11500
H567        H  0.97645330  0.41040964  0.15665664     0.14200
H568        H  0.01698697  0.28416964  0.15206647     0.13000
H569        H  0.01273632  0.41505243  0.88388067     0.10700
H570        H  0.97687962  0.29260872  0.88338878     0.12700
C571        C  0.98959799  0.43329449  0.34258194     0.18800
C572        C  0.04506384  0.44760910  0.35185760    -0.19300
C573        C  0.06070178  0.50141700  0.33700906    -0.11600
C574        C  0.02057565  0.54042264  0.31402757     0.21000
C575        C  0.96381011  0.52803047  0.31265578    -0.21000
C576        C  0.94787008  0.47552272  0.32928512    -0.11800
C577        C  0.03645555  0.59370281  0.28943039    -0.16000
C578        C  0.00418571  0.64063392  0.30071505    -0.29800
C579        C  0.98312526  0.37765939  0.31886056    -0.04100
C580        C  0.98273251  0.37472683  0.26352881    -0.40600
H581        H  0.07741598  0.41495126  0.36273388     0.12200
H582        H  0.10413209  0.51134031  0.34025099     0.11800
H583        H  0.93271280  0.55728090  0.29391195     0.11200
H584        H  0.90507409  0.46461747  0.32141139     0.11500
H585        H  0.07141381  0.59351838  0.26169203     0.14200
H586        H  0.97483483  0.63628741  0.33456618     0.13000
H587        H  0.99037239  0.33986905  0.34403458     0.10700
H588        H  0.98041651  0.41429984  0.24110862     0.12700
C589        C  0.98092484  0.46201223  0.70692867     0.18800
C590        C  0.02801239  0.49007210  0.69040088    -0.19300
C591        C  0.02766871  0.54894161  0.69622259    -0.11600
C592        C  0.98051527  0.57885640  0.71889441     0.21000
C593        C  0.93146173  0.55148900  0.72916424    -0.21000
C594        C  0.93109717  0.49324945  0.72171213    -0.11800
C595        C  0.98694121  0.63325675  0.74529495    -0.16000
C596        C  0.99485475  0.63440715  0.79997180    -0.29800
C597        C  0.98886883  0.40325276  0.72553742    -0.04100
C598        C  0.98419939  0.39270344  0.77951578    -0.40600
H599        H  0.06694226  0.46618878  0.67964824     0.12200
H600        H  0.06608035  0.56991082  0.68926287     0.11800
H601        H  0.89587450  0.57416876  0.74874443     0.11200
H602        H  0.89470972  0.47170139  0.73489735     0.11500
H603        H  0.98275194  0.67174920  0.72095166     0.14200
H604        H  0.99792656  0.59408239  0.82185779     0.13000
H605        H  0.00053885  0.36987457  0.69643451     0.10700
H606        H  0.97239420  0.42831622  0.80620245     0.12700
C607        C  0.00163499  0.69949842  0.99555511     0.18800
C608        C  0.00460066  0.74436093  0.03321670    -0.19300
C609        C  0.00632505  0.73468782  0.09014482    -0.11600
C610        C  0.00538815  0.67929999  0.11216239     0.21000
C611        C  0.00258651  0.63428602  0.07439311    -0.21000
C612        C  0.00039727  0.64404316  0.01728067    -0.11800
C613        C  0.00424888  0.66692022  0.17342292    -0.16000
C614        C  0.01069076  0.70637838  0.21329239    -0.29800
C615        C  0.99786357  0.71337360  0.93485863    -0.04100
C616        C  0.00145450  0.67469469  0.89359582    -0.40600
H617        H  0.00500505  0.78767541  0.01856027     0.12200
H618        H  0.00682550  0.77153995  0.11622587     0.11800
H619        H  0.00131142  0.59109290  0.08915083     0.11200
H620        H  0.99667223  0.60780166  0.99076906     0.11500
H621        H  0.99674195  0.62394071  0.18575660     0.14200
H622        H  0.01654747  0.74950772  0.20065297     0.13000
H623        H  0.99189592  0.75791761  0.92346273     0.10700
H624        H  0.00862898  0.63030668  0.90469995     0.12700
C625        C  0.04023113  0.00209548  0.37946434     0.18800
C626        C  0.00298452  0.02862887  0.41781477    -0.19300
C627        C  0.94421017  0.02641401  0.41123918    -0.11600
C628        C  0.92252077  0.99721759  0.36632989     0.21000
C629        C  0.96008320  0.96824571  0.33036891    -0.21000
C630        C  0.01781814  0.96999301  0.33711781    -0.11800
C631        C  0.86203654  0.99850726  0.35119553    -0.16000
C632        C  0.81734951  0.00550401  0.38496197    -0.29800
C633        C  0.10220620  0.00855604  0.38169840    -0.04100
C634        C  0.13088129  0.01183802  0.33435771    -0.40600
H635        H  0.01920022  0.05291061  0.45131585     0.12200
H636        H  0.91614987  0.04932799  0.43961402     0.11800
H637        H  0.94461399  0.94468173  0.29594747     0.11200
H638        H  0.04496450  0.94684984  0.30809718     0.11500
H639        H  0.85356755  0.98864079  0.30860286     0.14200
H640        H  0.82402197  0.01225164  0.42845296     0.13000
H641        H  0.12327069  0.00941899  0.42107988     0.10700
H642        H  0.10662428  0.01488653  0.29646583     0.12700
C643        C  0.32927322  0.98690516  0.40851293     0.18800
C644        C  0.34100392  0.02981376  0.44505727    -0.19300
C645        C  0.33506509  0.01956499  0.50044386    -0.11600
C646        C  0.31703765  0.96644436  0.51734881     0.21000
C647        C  0.32105228  0.92051837  0.48139337    -0.21000
C648        C  0.32944911  0.93078280  0.42649571    -0.14200
C649        C  0.27860988  0.96303675  0.56343085    -0.16000
C650        C  0.28093985  0.99901720  0.60479496    -0.29800
C651        C  0.29048098  0.00202990  0.36445591    -0.04100
C652        C  0.23380194  0.00527705  0.37319543    -0.40600
H653        H  0.34305992  0.07322627  0.43110215     0.12200
H654        H  0.33428088  0.05611721  0.52719937     0.11800
H655        H  0.30852125  0.87919100  0.49376263     0.11200
H656        H  0.32300892  0.89731524  0.39794731     0.11500
H657        H  0.24619309  0.93284245  0.56184926     0.14200
H658        H  0.31747089  0.02407817  0.60708874     0.13000
H659        H  0.30813879  0.00331075  0.32381251     0.10700
H660        H  0.21773136  0.00227326  0.41452890     0.12700
C661        C  0.62712836  0.97108763  0.44160566     0.18800
C662        C  0.61916122  0.00582744  0.48781022    -0.19300
C663        C  0.65196883  0.99245881  0.53404297    -0.11600
C664        C  0.68905238  0.94322040  0.53347552     0.21000
C665        C  0.68013703  0.90063361  0.49501528    -0.21000
C666        C  0.64492531  0.91367695  0.45028868    -0.11800
C667        C  0.73832976  0.93730696  0.57006551    -0.16000
C668        C  0.76083393  0.98302661  0.59258123    -0.29800
C669        C  0.65900391  0.99620832  0.39760883    -0.04100
C670        C  0.71468813  0.00204176  0.40695014    -0.40600
H671        H  0.59983433  0.04858713  0.48377837     0.12200
H672        H  0.65297174  0.02308523  0.56694275     0.11800
H673        H  0.70496709  0.86044593  0.49605053     0.11200
H674        H  0.64644012  0.88401014  0.41640638     0.11500
H675        H  0.75464570  0.89452337  0.58033067     0.14200
H676        H  0.75077210  0.02387697  0.57311124     0.13000
H677        H  0.64180894  0.99706193  0.35639415     0.10700
H678        H  0.73048579  0.00088586  0.44872736     0.12700
C679        C  0.96172497  0.98440706  0.64983307     0.18800
C680        C  0.99898454  0.01097675  0.68471502    -0.19300
C681        C  0.05677555  0.00969068  0.67352687    -0.11600
C682        C  0.07981196  0.98031530  0.62778184     0.21000
C683        C  0.04277066  0.95301505  0.59291470    -0.21000
C684        C  0.98430679  0.95566752  0.60332345    -0.11800
C685        C  0.14270690  0.97194533  0.62101367    -0.16000
C686        C  0.17791124  0.01251792  0.63541790    -0.29800
C687        C  0.90080445  0.98415133  0.66573257    -0.04100
C688        C  0.85750722  0.98258942  0.62967023    -0.40600
H689        H  0.98362747  0.03206108  0.72158614     0.12200
H690        H  0.08390165  0.02922028  0.70256163     0.11800
H691        H  0.05920883  0.92877238  0.55810956     0.11200
H692        H  0.95733148  0.93320395  0.57627187     0.11500
H693        H  0.16005314  0.92972786  0.60998814     0.14200
H694        H  0.15773461  0.05424906  0.64459764     0.13000
H695        H  0.89124654  0.98677152  0.70912139     0.10700
H696        H  0.86754031  0.98209742  0.58626894     0.12700
C697        C  0.28279743  0.06550224  0.01143387     0.18800
C698        C  0.26586505  0.02571157  0.04942382    -0.19300
C699        C  0.26881226  0.96763951  0.03650383    -0.11600
C700        C  0.28901783  0.94784632  0.98521241     0.21000
C701        C  0.30768755  0.98781563  0.94813767    -0.21000
C702        C  0.30444280  0.04574182  0.96095384    -0.11800
C703        C  0.29847477  0.88594808  0.97202431    -0.16000
C704        C  0.27613950  0.84404690  0.00093221    -0.29800
C705        C  0.28595947  0.12614754  0.02739034    -0.04100
C706        C  0.27878536  0.16867681  0.99051174    -0.40600
H707        H  0.25173402  0.03934941  0.08970871     0.12200
H708        H  0.25833208  0.93851692  0.06813495     0.11800
H709        H  0.32725429  0.97420386  0.91007419     0.11200
H710        H  0.32211768  0.07483039  0.93270476     0.11500
H711        H  0.32967988  0.87407133  0.94099084     0.14200
H712        H  0.24370887  0.85622936  0.03020019     0.13000
H713        H  0.30217732  0.13516145  0.06777272     0.10700
H714        H  0.25952487  0.15847913  0.95177965     0.12700
C715        C  0.56731223  0.20510671  0.00457785     0.18800
C716        C  0.53078437  0.23083844  0.04293694    -0.19300
C717        C  0.47736482  0.21262070  0.04800900    -0.11600
C718        C  0.45868148  0.17260319  0.01081628     0.21000
C719        C  0.49661192  0.14275470  0.97610761    -0.21000
C720        C  0.55158738  0.15868257  0.97348937    -0.11800
C721        C  0.39884007  0.17080491  0.00067649    -0.16000
C722        C  0.36663693  0.21990221  0.00199842    -0.29800
C723        C  0.62215343  0.22693345  0.99859073    -0.04100
C724        C  0.66856894  0.19187981  0.00187748    -0.40600
H725        H  0.54342352  0.26524922  0.06838304     0.12200
H726        H  0.44893818  0.23337509  0.07745448     0.11800
H727        H  0.48268329  0.11084285  0.94813194     0.11200
H728        H  0.58061942  0.13731603  0.94511970     0.11500
H729        H  0.38327862  0.13087200  0.98801790     0.14200
H730        H  0.38674608  0.25968213  0.00727531     0.13000
H731        H  0.62509778  0.27270478  0.99654565     0.10700
H732        H  0.66340055  0.14649199  0.00515307     0.12700
C733        C  0.56875273  0.77090738  0.01029436     0.18800
C734        C  0.53074470  0.81581987  0.99638587    -0.19300
C735        C  0.47611007  0.80493971  0.98458523    -0.11600
C736        C  0.45841561  0.74961137  0.99150886     0.21000
C737        C  0.49772405  0.70386208  0.00040998    -0.21000
C738        C  0.55364983  0.71450575  0.00873245    -0.11800
C739        C  0.39886942  0.74039723  0.99279739    -0.16000
C740        C  0.36245336  0.78347913  0.00700601    -0.29800
C741        C  0.62477934  0.78413316  0.02425422    -0.04100
C742        C  0.66756316  0.76201333  0.99453911    -0.40600
H743        H  0.54348085  0.85904717  0.99447490     0.12200
H744        H  0.44740191  0.84038244  0.97247679     0.11800
H745        H  0.48483056  0.66079714  0.00340171     0.11200
H746        H  0.58442073  0.67939939  0.01644668     0.11500
H747        H  0.38444400  0.69952956  0.98041890     0.14200
H748        H  0.37781131  0.82145831  0.02558825     0.13000
H749        H  0.63040777  0.81629276  0.05537016     0.10700
H750        H  0.65913648  0.73059684  0.96376398     0.12700
C751        C  0.76827691  0.05718073  0.02849859     0.18800
C752        C  0.72704605  0.02521452  0.05236417    -0.19300
C753        C  0.72797428  0.96639865  0.04580199    -0.11600
C754        C  0.77077607  0.93713726  0.01560473     0.21000
C755        C  0.81264937  0.96867027  0.99184700    -0.21000
C756        C  0.81096425  0.02842209  0.99740319    -0.11800
C757        C  0.77305332  0.87374098  0.01067554    -0.16000
C758        C  0.72605098  0.84448538  0.00673427    -0.29800
C759        C  0.76353584  0.11987639  0.03859824    -0.04100
C760        C  0.76797566  0.16056140  0.99997981    -0.40600
H761        H  0.69317422  0.04599673  0.07601111     0.12200
H762        H  0.69550070  0.94378721  0.06529176     0.11800
H763        H  0.84629490  0.94705964  0.96849865     0.11200
H764        H  0.84332591  0.05173802  0.97846311     0.11500
H765        H  0.81416298  0.85073473  0.00910542     0.14200
H766        H  0.68609685  0.86943179  0.00323249     0.13000
H767        H  0.73887438  0.13194956  0.07400034     0.10700
H768        H  0.79023219  0.14883006  0.96246310     0.12700
C769        C  0.43722216  0.93959758  0.74599320     0.18800
C770        C  0.40044545  0.98471838  0.72877734    -0.19300
C771        C  0.41347294  0.03969762  0.74061950    -0.11600
C772        C  0.46356196  0.04872380  0.76899018     0.21000
C773        C  0.49257704  0.00399795  0.79672603    -0.21000
C774        C  0.47845917  0.94878897  0.78608505    -0.11800
C775        C  0.49204485  0.09985318  0.75665088    -0.16000
C776        C  0.49853173  0.11371337  0.70348259    -0.29800
C777        C  0.43931602  0.88782500  0.71281514    -0.04100
C778        C  0.48733155  0.85495842  0.70633587    -0.40600
H779        H  0.36688096  0.97806951  0.69987056     0.12200
H780        H  0.38957855  0.07466063  0.72064591     0.11800
H781        H  0.53002926  0.01094345  0.82051846     0.11200
H782        H  0.50418935  0.91381918  0.80386901     0.11500
H783        H  0.49946341  0.12939686  0.78957439     0.14200
H784        H  0.49065129  0.08161757  0.67325790     0.13000
H785        H  0.40201308  0.87875197  0.68952388     0.10700
H786        H  0.52509943  0.86745970  0.72701243     0.12700
C787        C  0.49906512  0.15796446  0.52401534     0.18800
C788        C  0.48301023  0.11463107  0.48876086    -0.19300
C789        C  0.47650145  0.12409720  0.43232669    -0.11600
C790        C  0.48650793  0.17728245  0.40961361     0.21000
C791        C  0.50204749  0.22071908  0.44489273    -0.21000
C792        C  0.50866362  0.21122373  0.50126913    -0.11800
C793        C  0.48215905  0.18949708  0.34966401    -0.16000
C794        C  0.48884159  0.14954934  0.31008347    -0.29800
C795        C  0.50612673  0.14526354  0.58375661    -0.04100
C796        C  0.50115993  0.18519298  0.62386857    -0.40600
H797        H  0.47502832  0.07324396  0.50505794     0.12200
H798        H  0.46308396  0.08986464  0.40698416     0.11800
H799        H  0.51032496  0.26199957  0.42853891     0.11200
H800        H  0.52248755  0.24537128  0.52645303     0.11500
H801        H  0.48002135  0.23382842  0.33719017     0.14200
H802        H  0.49347389  0.10511820  0.32186551     0.13000
H803        H  0.51402230  0.10083536  0.59381859     0.10700
H804        H  0.49445798  0.22946125  0.61192020     0.12700
C805        C  0.49581133  0.79345739  0.51066187     0.18800
C806        C  0.49574729  0.74999486  0.47105494    -0.19300
C807        C  0.49442064  0.76218924  0.41452434    -0.11600
C808        C  0.49293199  0.81873689  0.39522347     0.21000
C809        C  0.49363928  0.86219466  0.43486876    -0.21000
C810        C  0.49528879  0.84997519  0.49141658    -0.11800
C811        C  0.49063258  0.83481721  0.33501204    -0.16000
C812        C  0.48765072  0.79758839  0.29260627    -0.29800
C813        C  0.49784241  0.77763795  0.57093878    -0.04100
C814        C  0.48664145  0.81457185  0.61286347    -0.40600
H815        H  0.49671232  0.70598441  0.48389840     0.12200
H816        H  0.49444629  0.72671356  0.38664212     0.11800
H817        H  0.49304542  0.90620259  0.42204699     0.11200
H818        H  0.49690865  0.88520742  0.51955546     0.11500
H819        H  0.49188177  0.87961423  0.32612447     0.14200
H820        H  0.48743585  0.75279872  0.30219935     0.13000
H821        H  0.50861954  0.73341017  0.58128516     0.10700
H822        H  0.47489835  0.85858274  0.60270039     0.12700
C823        C  0.51403232  0.05558163  0.13533845     0.18800
C824        C  0.55855127  0.01585464  0.14820644    -0.19300
C825        C  0.54861494  0.95870074  0.15090817    -0.11600
C826        C  0.49496363  0.94109823  0.13990403     0.21000
C827        C  0.45324000  0.97932250  0.11794309    -0.21000
C828        C  0.46304301  0.03702011  0.11531032    -0.11800
C829        C  0.48216882  0.88474066  0.15842251    -0.16000
C830        C  0.48241136  0.87225046  0.21264596    -0.29800
C831        C  0.51281433  0.11111488  0.16206594    -0.04100
C832        C  0.51216548  0.11215025  0.21725645    -0.40600
H833        H  0.59813795  0.02966143  0.16365701     0.12200
H834        H  0.58067592  0.92875104  0.16701930     0.11800
H835        H  0.41189293  0.96563386  0.10799752     0.11200
H836        H  0.42867824  0.06750322  0.10455676     0.11500
H837        H  0.48054111  0.85135496  0.12783282     0.14200
H838        H  0.48394020  0.90652965  0.24206466     0.13000
H839        H  0.50285586  0.14943889  0.13856527     0.10700
H840        H  0.51809828  0.07191583  0.23907228     0.12700
C841        C  0.78711167  0.51179113  0.03440106     0.18800
C842        C  0.77650925  0.45562757  0.02002848    -0.19300
C843        C  0.80130043  0.43157754  0.97393837    -0.11600
C844        C  0.82835343  0.46791197  0.93929502     0.21000
C845        C  0.85586602  0.51208227  0.96347042    -0.21000
C846        C  0.83121953  0.53806883  0.00957056    -0.11800
C847        C  0.79504997  0.48509299  0.89084011    -0.16000
C848        C  0.73748725  0.49212955  0.89282762    -0.29800
C849        C  0.75828639  0.53589846  0.08164547    -0.04100
C850        C  0.76628625  0.50381137  0.12557686    -0.40600
H851        H  0.74617738  0.43227073  0.04218210     0.12200
H852        H  0.78355920  0.39386626  0.95808724     0.11800
H853        H  0.88928705  0.53143329  0.94227179     0.11200
H854        H  0.84548468  0.57772097  0.02499479     0.11500
H855        H  0.81730268  0.48937589  0.85244595     0.14200
H856        H  0.71502085  0.48909799  0.93120579     0.13000
H857        H  0.72335038  0.56774350  0.07742581     0.10700
H858        H  0.80474854  0.47558479  0.12638914     0.12700
C859        C  0.57279150  0.50222820  0.11911073     0.18800
C860        C  0.53917925  0.46490604  0.09095054    -0.19300
C861        C  0.48104517  0.46509192  0.10205721    -0.11600
C862        C  0.45641450  0.50256959  0.14155737     0.21000
C863        C  0.48952404  0.54175581  0.16684128    -0.21000
C864        C  0.54656805  0.54226506  0.15519807    -0.11800
C865        C  0.39855570  0.49852288  0.16267616    -0.16000
C866        C  0.35240056  0.49668805  0.13092990    -0.29800
C867        C  0.63554634  0.49650561  0.11612278    -0.04100
C868        C  0.66494130  0.49960814  0.16322830    -0.40600
H869        H  0.55834674  0.43362222  0.06300612     0.12200
H870        H  0.45626421  0.43400501  0.08238743     0.11800
H871        H  0.47149873  0.57099455  0.19731526     0.11200
H872        H  0.57090293  0.57213670  0.17706937     0.11500
H873        H  0.39280095  0.50346247  0.20661145     0.14200
H874        H  0.35759026  0.49477154  0.08673348     0.13000
H875        H  0.65632670  0.48938908  0.07706535     0.10700
H876        H  0.64089150  0.50201434  0.20107568     0.12700
C877        C  0.42098410  0.50186358  0.85830210     0.18800
C878        C  0.45993511  0.47924416  0.81980359    -0.19300
C879        C  0.51760789  0.48552457  0.82577865    -0.11600
C880        C  0.53912911  0.51421624  0.87114929     0.21000
C881        C  0.50017523  0.53720075  0.91005291    -0.21000
C882        C  0.44173763  0.53078775  0.90398817    -0.11800
C883        C  0.60128420  0.52336436  0.87556757    -0.16000
C884        C  0.64058677  0.48751191  0.85105885    -0.29800
C885        C  0.35956725  0.49922144  0.84494153    -0.04100
C886        C  0.31650779  0.50081830  0.88116742    -0.40600
H887        H  0.44550130  0.45765747  0.78374485     0.12200
H888        H  0.54482018  0.46973257  0.79306760     0.11800
H889        H  0.51488807  0.56067527  0.94482451     0.11200
H890        H  0.41293632  0.55023575  0.93383097     0.11500
H891        H  0.61431240  0.56106171  0.89632691     0.14200
H892        H  0.62523453  0.44865685  0.83467922     0.13000
H893        H  0.34955172  0.49503719  0.80190138     0.10700
H894        H  0.32691655  0.50306980  0.92443811     0.12700
C895        C  0.15458309  0.49907239  0.07443886     0.18800
C896        C  0.15806375  0.44685071  0.04718044    -0.19300
C897        C  0.14581324  0.44521884  0.99170764    -0.11600
C898        C  0.13089168  0.49589055  0.96368167     0.21000
C899        C  0.11418882  0.54475092  0.99367871    -0.21000
C900        C  0.12740015  0.54689427  0.04939223    -0.11800
C901        C  0.16021002  0.50361049  0.91186310    -0.16000
C902        C  0.21708069  0.50235073  0.91387126    -0.29800
C903        C  0.19326582  0.50632869  0.12009186    -0.04100
C904        C  0.24947522  0.50129052  0.11096499    -0.40600
H905        H  0.17909869  0.40968320  0.06622968     0.12200
H906        H  0.16069654  0.40778467  0.96936991     0.11800
H907        H  0.10053740  0.58355578  0.97275606     0.11200
H908        H  0.12375208  0.58740893  0.07039155     0.11500
H909        H  0.13706056  0.50780331  0.87348570     0.14200
H910        H  0.23757167  0.49941035  0.95383539     0.13000
H911        H  0.17579735  0.51384746  0.16046059     0.10700
H912        H  0.26369461  0.49543419  0.06889150     0.12700
C913        C  0.92554825  0.72211759  0.49820136     0.18800
C914        C  0.94655170  0.74887122  0.54479577    -0.19300
C915        C  0.99700018  0.77496023  0.54217367    -0.11600
C916        C  0.02754659  0.77291134  0.49349689     0.21000
C917        C  0.00609738  0.74762853  0.44662783    -0.21000
C918        C  0.95525644  0.72238092  0.44900227    -0.11800
C919        C  0.08762004  0.77920324  0.49674706    -0.16000
C920        C  0.12091746  0.73113322  0.49881525    -0.29800
C921        C  0.87089595  0.69716622  0.49809151    -0.04100
C922        C  0.82847973  0.72029657  0.52826409    -0.40600
H923        H  0.92533218  0.74785763  0.58364112     0.12200
H924        H  0.01445298  0.79236470  0.57912695     0.11800
H925        H  0.03067096  0.74388604  0.40949701     0.11200
H926        H  0.93948361  0.70225221  0.41270485     0.11500
H927        H  0.10395934  0.82068540  0.50254733     0.14200
H928        H  0.10131798  0.69071899  0.49635805     0.13000
H929        H  0.86191796  0.66812074  0.46510698     0.10700
H930        H  0.83686598  0.75269974  0.55829028     0.12700
C931        C  0.20417524  0.56550339  0.49819829     0.18800
C932        C  0.24010456  0.52561363  0.47070244    -0.19300
C933        C  0.24406160  0.46856304  0.48698300    -0.11600
C934        C  0.20949213  0.44937043  0.52882267     0.21000
C935        C  0.17417453  0.48973445  0.55681399    -0.21000
C936        C  0.17200204  0.54724640  0.54209250    -0.11800
C937        C  0.20538873  0.38757890  0.54088677    -0.16000
C938        C  0.21339541  0.34734206  0.50169585    -0.29800
C939        C  0.19786537  0.62569204  0.48000791    -0.04100
C940        C  0.20438911  0.66817034  0.51587235    -0.40600
H941        H  0.26541775  0.53838574  0.43687845     0.12200
H942        H  0.27388236  0.43966632  0.46635375     0.11800
H943        H  0.14663223  0.47653522  0.58887564     0.11200
H944        H  0.14352447  0.57726187  0.56366971     0.11500
H945        H  0.18635783  0.37608349  0.57925355     0.14200
H946        H  0.22872797  0.36066134  0.46243380     0.13000
H947        H  0.18347348  0.63511341  0.43859084     0.10700
H948        H  0.22154361  0.65545665  0.55551498     0.12700
C949        C  0.72820128  0.43284396  0.49218117     0.18800
C950        C  0.69748975  0.47881167  0.46694499    -0.19300
C951        C  0.70939326  0.53544612  0.47837581    -0.11600
C952        C  0.75344813  0.54766497  0.51451661     0.21000
C953        C  0.78215284  0.50159119  0.54165959    -0.21000
C954        C  0.76975815  0.44525355  0.53078735    -0.11800
C955        C  0.76958555  0.60718927  0.52702440    -0.16000
C956        C  0.75550229  0.65418596  0.49631782    -0.29800
C957        C  0.72497271  0.37313789  0.47118809    -0.04100
C958        C  0.72775268  0.32746665  0.50504121    -0.40600
H959        H  0.66441475  0.47088275  0.43798439     0.12200
H960        H  0.68386061  0.56930749  0.45887434     0.11800
H961        H  0.81551250  0.50904384  0.57054658     0.11200
H962        H  0.79468921  0.41125262  0.55099275     0.11500
H963        H  0.79487238  0.61250290  0.56340076     0.14200
H964        H  0.73339729  0.64817307  0.45842787     0.13000
H965        H  0.73718139  0.36633303  0.42897412     0.10700
H966        H  0.71272342  0.33539213  0.54637421     0.12700
C967        C  0.03365062  0.32717078  0.51158436     0.18800
C968        C  0.99436268  0.35976434  0.48051878    -0.19300
C969        C  0.94072423  0.34122847  0.47384798    -0.11600
C970        C  0.92712429  0.28968005  0.49778868     0.21000
C971        C  0.96496207  0.26026298  0.53285245    -0.21000
C972        C  0.01743442  0.27990517  0.54110433    -0.11800
C973        C  0.87343349  0.26565783  0.48870739    -0.16000
C974        C  0.82588736  0.29893733  0.48818197    -0.29800
C975        C  0.09308957  0.33618371  0.50596542    -0.04100
C976        C  0.12876474  0.29000408  0.50066468    -0.40600
H977        H  0.00624201  0.39699232  0.45864668     0.12200
H978        H  0.91131040  0.36610336  0.44842327     0.11800
H979        H  0.95428871  0.22156798  0.55300032     0.11200
H980        H  0.04703776  0.25544683  0.56694248     0.11500
H981        H  0.87166140  0.21984098  0.49261102     0.14200
H982        H  0.82925552  0.34452884  0.48802373     0.13000
H983        H  0.10601201  0.37924361  0.50441536     0.10700
H984        H  0.11169196  0.24836690  0.49807838     0.12700
loop_ 
_geom_bond_atom_site_label_1 
_geom_bond_atom_site_label_2 
_geom_bond_distance 
_geom_bond_site_symmetry_2 
_ccdc_geom_bond_type 
Zr1           O2   2.409       .  S
Zr1           O3   2.513       .  S
Zr1           O4   2.503       .  S
Zr1           O7   2.499       .  S
Zr1           O9   2.386       .  S
Zr1          O10   2.409       .  S
Zr1          O11   2.413       .  S
Zr1          O12   2.397       .  S
O2           H58   0.991       .  S
O2           H66   0.991       .  S
O3           C23   1.287       .  A
O4           C25   1.301       .  A
O5          Zr15   2.502       .  S
O5           C24   1.299       .  A
O6          Zr14   2.479       .  S
O6           C25   1.288       .  A
O7           C24   1.302       .  A
O8          Zr16   2.427       .  S
O8           C23   1.271       .  A
O9          Zr14   2.404       .  S
O9          Zr16   2.378       .  S
O10         Zr15   2.405       .  S
O10         Zr16   2.390       .  S
O10          H45   0.961       .  S
O11         Zr14   2.424       .  S
O11         Zr31   2.413       .  S
O11          H48   0.963       .  S
O12         Zr15   2.384       .  S
O12         Zr31   2.360       .  S
Zr13         O38   2.444       .  S
Zr13         O32   2.526       .  S
Zr13         O40   2.478       .  S
Zr13         O28   2.501       .  S
Zr13         O19   2.418       .  S
Zr13         O20   2.429       .  S
Zr13         O21   2.395       .  S
Zr13         O22   2.405       .  S
Zr14         O33   2.436       .  S
Zr14         O26   2.436       .  S
Zr14         O27   2.491       .  S
Zr14         O20   2.406       .  S
Zr14         O21   2.425       .  S
Zr15         O17   2.435       .  S
Zr15         O39   2.439       .  S
Zr15         O41   2.482       .  S
Zr15         O19   2.415       .  S
Zr15         O22   2.384       .  S
Zr16         O42   2.425       .  S
Zr16         O43   2.436       .  S
Zr16         O18   2.439       .  S
Zr16         O19   2.401       .  S
Zr16         O20   2.362       .  S
O17          H54   0.991       .  S
O18          H49   0.989       .  S
O18          H63   0.990       .  S
O20          H46   0.963       .  S
O21         Zr31   2.401       .  S
O22         Zr31   2.381       .  S
O22          H47   0.966       .  S
C23         C343   1.557   1_556  S
C24          C73   1.578       .  S
C25         C483   1.563       .  S
O26          H62   0.990       .  S
O27          C29   1.297       .  A
O28          C29   1.299       .  A
C29         C413   1.572       .  S
O30         Zr31   2.434       .  S
O30          H59   0.991       .  S
Zr31         O34   2.436       .  S
Zr31         O35   2.445       .  S
Zr31         O36   2.410       .  S
O32          C37   1.293       .  A
O33          H50   0.990       .  S
O33          H65   0.990       .  S
O34          H51   0.989       .  S
O35          H55   0.990       .  S
O35          H64   0.990       .  S
O36          C37   1.261       .  A
C37          C69   1.546       .  S
O38          H57   0.989       .  S
O38          H61   0.989       .  S
O39          H53   0.990       .  S
O39          H60   0.990       .  S
O40          C44   1.299       .  A
O41          C44   1.291       .  A
O42          H52   0.990       .  S
O43          H56   0.990       .  S
C44          C77   1.558       .  S
C67         C254   1.570       .  S
C67         C301   1.575       .  S
C67         C958   1.551       .  S
C67         C974   1.522       .  S
C68         C102   1.568       .  S
C68         C509   1.553       .  S
C68         C938   1.543       .  S
C68         C976   1.506       .  S
C69         C439   1.547       .  S
C69         C922   1.504       .  S
C69         C956   1.565       .  S
C70         C181   1.574       .  S
C70         C375   1.571       .  S
C70         C920   1.507       .  S
C70         C940   1.541       .  S
C71         C115   1.555       .  S
C71         C369   1.536       .  S
C71         C886   1.554       .  S
C71         C902   1.515       .  S
C72         C169   1.567       .  S
C72         C530   1.554       .  S
C72         C866   1.543       .  S
C72         C904   1.521       .  S
C73         C313   1.573       .  S
C73         C848   1.507       .  S
C73         C884   1.552       .  S
C74         C233   1.539       .  S
C74         C460   1.534       .  S
C74         C850   1.484       .  S
C74         C868   1.526       .  S
C75         C168   1.578       .  S
C75         C445   1.586       .  S
C75         C812   1.552       .  S
C75         C830   1.534       .  S
C76         C239   1.539       .  S
C76         C515   1.562       .  S
C76         C794   1.543       .  S
C76         C832   1.513       .  S
C77         C390   1.569       .  S
C77         C778   1.522       .  S
C77         C814   1.557       .  S
C78         C103   1.565       .  S
C78         C300   1.561       .  S
C78         C776   1.509       .  S
C78         C796   1.553       .  S
Zr79         O80   2.442       .  S
Zr79         O81   2.525       .  S
Zr79         O82   2.482       .  S
Zr79         O85   2.510       .  S
Zr79         O87   2.388       .  S
Zr79         O88   2.394       .  S
Zr79         O89   2.432       .  S
Zr79         O90   2.403       .  S
O80         H136   0.990       .  S
O80         H144   0.991       .  S
O81         C101   1.310       .  A
O82         C103   1.299       .  A
O83         Zr93   2.445       .  S
O83         C102   1.294       .  A
O84         Zr92   2.490       .  S
O84         C103   1.292       .  A
O85         C102   1.295       .  A
O86         Zr94   2.384       .  S
O86         C101   1.269       .  A
O87         Zr92   2.425       .  S
O87         Zr94   2.403       .  S
O88         Zr93   2.381       .  S
O88         Zr94   2.383       .  S
O88         H123   0.965       .  S
O89         Zr92   2.400       .  S
O89        Zr109   2.399       .  S
O89         H126   0.965       .  S
O90         Zr93   2.376       .  S
O90        Zr109   2.390       .  S
Zr91        O116   2.434       .  S
Zr91        O110   2.491       .  S
Zr91        O118   2.524       .  S
Zr91        O106   2.498       .  S
Zr91         O97   2.408       .  S
Zr91         O98   2.424       .  S
Zr91         O99   2.395       .  S
Zr91        O100   2.388       .  S
Zr92        O111   2.443       .  S
Zr92        O104   2.435       .  S
Zr92        O105   2.486       .  S
Zr92         O98   2.402       .  S
Zr92         O99   2.393       .  S
Zr93         O95   2.432       .  S
Zr93        O117   2.441       .  S
Zr93        O119   2.432       .  S
Zr93         O97   2.398       .  S
Zr93        O100   2.410       .  S
Zr94        O120   2.432       .  S
Zr94        O121   2.437       .  S
Zr94         O96   2.430       .  S
Zr94         O97   2.398       .  S
Zr94         O98   2.352       .  S
O95         H132   0.988       .  S
O96         H127   0.990       .  S
O96         H141   0.990       .  S
O98         H124   0.957       .  S
O99        Zr109   2.378       .  S
O100       Zr109   2.392       .  S
O100        H125   0.966       .  S
C101        C414   1.550       .  S
O104        H140   0.990       .  S
O105        C107   1.302       .  A
O106        C107   1.296       .  A
C107        C346   1.563       .  S
O108       Zr109   2.440       .  S
O108        H137   0.990       .  S
Zr109       O112   2.437       .  S
Zr109       O113   2.432       .  S
Zr109       O114   2.424       .  S
O110        C115   1.299       .  A
O111        H128   0.990       .  S
O111        H143   0.990       .  S
O112        H129   0.991       .  S
O113        H133   0.989       .  S
O113        H142   0.989       .  S
O114        C115   1.281       .  A
O116        H135   0.988       .  S
O116        H139   0.990       .  S
O117        H131   0.989       .  S
O117        H138   0.990       .  S
O118        C122   1.307       .  A
O119        C122   1.280       .  A
O120        H130   0.989       .  S
O121        H134   0.990       .  S
C122        C485   1.559   1_455  S
Zr145       O146   2.444       .  S
Zr145       O147   2.511       .  S
Zr145       O148   2.474       .  S
Zr145       O151   2.501       .  S
Zr145       O153   2.389       .  S
Zr145       O154   2.413       .  S
Zr145       O155   2.436       .  S
Zr145       O156   2.424       .  S
O146        H202   0.991       .  S
O146        H210   0.990       .  S
O147        C167   1.305       .  A
O148        C169   1.295       .  A
O149       Zr159   2.484       .  S
O149        C168   1.294       .  A
O150       Zr158   2.477       .  S
O150        C169   1.293       .  A
O151        C168   1.286       .  A
O152       Zr160   2.407       .  S
O152        C167   1.272       .  A
O153       Zr158   2.402       .  S
O153       Zr160   2.384       .  S
O154       Zr159   2.380       .  S
O154       Zr160   2.381       .  S
O154        H189   0.966       .  S
O155       Zr158   2.407       .  S
O155       Zr175   2.420       .  S
O155        H192   0.965       .  S
O156       Zr159   2.388       .  S
O156       Zr175   2.401       .  S
Zr157       O182   2.441       .  S
Zr157       O176   2.520       .  S
Zr157       O184   2.470       .  S
Zr157       O172   2.478       .  S
Zr157       O163   2.425       .  S
Zr157       O164   2.444       .  S
Zr157       O165   2.390       .  S
Zr157       O166   2.387       .  S
Zr158       O177   2.429       .  S
Zr158       O170   2.431       .  S
Zr158       O171   2.516       .  S
Zr158       O164   2.381       .  S
Zr158       O165   2.395       .  S
Zr159       O161   2.426       .  S
Zr159       O183   2.438       .  S
Zr159       O185   2.450       .  S
Zr159       O163   2.406       .  S
Zr159       O166   2.422       .  S
Zr160       O186   2.431       .  S
Zr160       O187   2.438       .  S
Zr160       O162   2.433       .  S
Zr160       O163   2.403       .  S
Zr160       O164   2.357       .  S
O161        H198   0.989       .  S
O162        H193   0.991       .  S
O162        H207   0.990       .  S
O164        H190   0.968       .  S
O165       Zr175   2.374       .  S
O166       Zr175   2.387       .  S
O166        H191   0.961       .  S
C167        C345   1.548   1_554  S
O170        H206   0.986       .  S
O171        C173   1.300       .  A
O172        C173   1.284       .  A
C173        C484   1.557       .  S
O174       Zr175   2.436       .  S
O174        H203   0.990       .  S
Zr175       O178   2.432       .  S
Zr175       O179   2.435       .  S
Zr175       O180   2.445       .  S
O176        C181   1.304       .  A
O177        H194   0.990       .  S
O177        H209   0.989       .  S
O178        H195   0.989       .  S
O179        H199   0.989       .  S
O179        H208   0.987       .  S
O180        C181   1.282       .  A
O182        H201   0.989       .  S
O182        H205   0.990       .  S
O183        H197   0.990       .  S
O183        H204   0.990       .  S
O184        C188   1.297       .  A
O185        C188   1.286       .  A
O186        H196   0.991       .  S
O187        H200   0.990       .  S
C188        C416   1.551   1_565  S
Zr211       O212   2.434       .  S
Zr211       O213   2.531       .  S
Zr211       O214   2.582       .  S
Zr211       O217   2.478       .  S
Zr211       O219   2.380       .  S
Zr211       O220   2.400       .  S
Zr211       O221   2.402       .  S
Zr211       O222   2.435       .  S
O212        H268   0.990       .  S
O212        H276   0.990       .  S
O213        C233   1.313       .  A
O214        C235   1.308       .  A
O215       Zr225   2.457       .  S
O215        C234   1.287       .  A
O216       Zr224   2.469       .  S
O216        C235   1.294       .  A
O217        C234   1.300       .  A
O218       Zr226   2.365       .  S
O218        C233   1.263       .  A
O219       Zr224   2.380       .  S
O219       Zr226   2.400       .  S
O220       Zr225   2.402       .  S
O220       Zr226   2.395       .  S
O220        H255   0.966       .  S
O221       Zr224   2.382       .  S
O221       Zr241   2.372       .  S
O221        H258   0.952       .  S
O222       Zr225   2.403       .  S
O222       Zr241   2.402       .  S
Zr223       O248   2.436       .  S
Zr223       O242   2.473       .  S
Zr223       O250   2.518       .  S
Zr223       O238   2.515       .  S
Zr223       O229   2.407       .  S
Zr223       O230   2.412       .  S
Zr223       O231   2.380       .  S
Zr223       O232   2.409       .  S
Zr224       O243   2.429       .  S
Zr224       O236   2.436       .  S
Zr224       O237   2.406       .  S
Zr224       O230   2.409       .  S
Zr224       O231   2.413       .  S
Zr225       O227   2.437       .  S
Zr225       O249   2.428       .  S
Zr225       O251   2.474       .  S
Zr225       O229   2.386       .  S
Zr225       O232   2.382       .  S
Zr226       O252   2.434       .  S
Zr226       O253   2.437       .  S
Zr226       O228   2.439       .  S
Zr226       O229   2.361       .  S
Zr226       O230   2.374       .  S
O227        H264   0.990       .  S
O228        H259   0.990       .  S
O228        H273   0.989       .  S
O230        H256   0.965       .  S
O231       Zr241   2.383       .  S
O232       Zr241   2.364       .  S
O232        H257   0.965       .  S
C234        C486   1.551       .  S
C235        C344   1.612   1_554  S
O236        H272   0.990       .  S
O237        C239   1.277       .  A
O238        C239   1.309       .  A
O240       Zr241   2.438       .  S
O240        H269   0.990       .  S
Zr241       O244   2.433       .  S
Zr241       O245   2.439       .  S
Zr241       O246   2.413       .  S
O242        C247   1.296       .  A
O243        H260   0.983       .  S
O243        H275   0.985       .  S
O244        H261   0.990       .  S
O245        H265   0.990       .  S
O245        H274   0.990       .  S
O246        C247   1.278       .  A
C247        C415   1.534       .  S
O248        H267   0.990       .  S
O248        H271   0.991       .  S
O249        H263   0.988       .  S
O249        H270   0.988       .  S
O250        C254   1.296       .  A
O251        C254   1.288       .  A
O252        H262   0.991       .  S
O253        H266   0.990       .  S
Zr277       O278   2.443       .  S
Zr277       O279   2.528       .  S
Zr277       O280   2.494       .  S
Zr277       O283   2.484       .  S
Zr277       O285   2.391       .  S
Zr277       O286   2.387       .  S
Zr277       O287   2.424       .  S
Zr277       O288   2.418       .  S
O278        H334   0.990       .  S
O278        H342   0.990       .  S
O279        C299   1.306       .  A
O280        C301   1.293       .  A
O281       Zr291   2.485       .  S
O281        C300   1.292       .  A
O282       Zr290   2.508       .  S
O282        C301   1.309       .  A
O283        C300   1.299       .  A
O284       Zr292   2.445       .  S
O284        C299   1.282       .  A
O285       Zr290   2.415       .  S
O285       Zr292   2.393       .  S
O286       Zr291   2.420       .  S
O286       Zr292   2.391       .  S
O286        H321   0.966       .  S
O287       Zr290   2.403       .  S
O287       Zr307   2.357       .  S
O287        H324   0.956       .  S
O288       Zr291   2.393       .  S
O288       Zr307   2.405       .  S
Zr289       O314   2.444       .  S
Zr289       O308   2.521       .  S
Zr289       O316   2.477       .  S
Zr289       O304   2.459       .  S
Zr289       O295   2.417       .  S
Zr289       O296   2.424       .  S
Zr289       O297   2.376       .  S
Zr289       O298   2.395       .  S
Zr290       O309   2.438       .  S
Zr290       O302   2.435       .  S
Zr290       O303   2.522       .  S
Zr290       O296   2.404       .  S
Zr290       O297   2.424       .  S
Zr291       O293   2.434       .  S
Zr291       O315   2.437       .  S
Zr291       O317   2.492       .  S
Zr291       O295   2.379       .  S
Zr291       O298   2.401       .  S
Zr292       O318   2.439       .  S
Zr292       O319   2.438       .  S
Zr292       O294   2.432       .  S
Zr292       O295   2.394       .  S
Zr292       O296   2.404       .  S
O293        H330   0.990       .  S
O294        H325   0.990       .  S
O294        H339   0.989       .  S
O296        H322   0.964       .  S
O297       Zr307   2.400       .  S
O298       Zr307   2.388       .  S
O298        H323   0.966       .  S
C299        C413   1.581   1_545  S
O302        H338   0.990       .  S
O303        C305   1.298       .  A
O304        C305   1.291       .  A
C305        C485   1.575       .  S
O306       Zr307   2.439       .  S
O306        H335   0.990       .  S
Zr307       O310   2.438       .  S
Zr307       O311   2.437       .  S
Zr307       O312   2.414       .  S
O308        C313   1.310       .  A
O309        H326   0.991       .  S
O309        H341   0.990       .  S
O310        H327   0.990       .  S
O311        H331   0.989       .  S
O311        H340   0.990       .  S
O312        C313   1.274       .  A
O314        H333   0.991       .  S
O314        H337   0.990       .  S
O315        H329   0.990       .  S
O315        H336   0.989       .  S
O316        C320   1.285       .  A
O317        C320   1.307       .  A
O318        H328   0.991       .  S
O319        H332   0.990       .  S
C320        C344   1.580       .  S
C343        C453   1.545       .  S
C343        C742   1.497   1_554  S
C343        C758   1.556       .  S
C344        C724   1.532   1_556  S
C344        C760   1.552       .  S
C345        C370   1.549       .  S
C345        C704   1.543   1_556  S
C345        C740   1.497   1_556  S
C346        C523   1.555   1_556  S
C346        C706   1.543       .  S
C346        C722   1.508   1_556  S
Zr347       O348   2.437       .  S
Zr347       O349   2.489       .  S
Zr347       O350   2.470       .  S
Zr347       O353   2.466       .  S
Zr347       O355   2.385       .  S
Zr347       O356   2.405       .  S
Zr347       O357   2.426       .  S
Zr347       O358   2.399       .  S
O348        H404   0.987       .  S
O348        H412   0.991       .  S
O349        C369   1.298       .  A
O350        C371   1.291       .  A
O351       Zr361   2.470       .  S
O351        C370   1.298       .  A
O352       Zr360   2.521       .  S
O352        C371   1.303       .  A
O353        C370   1.286       .  A
O354       Zr362   2.398       .  S
O354        C369   1.275       .  A
O355       Zr360   2.420       .  S
O355       Zr362   2.388       .  S
O356       Zr361   2.392       .  S
O356       Zr362   2.382       .  S
O356        H391   0.965       .  S
O357       Zr360   2.410       .  S
O357       Zr377   2.402       .  S
O357        H394   0.965       .  S
O358       Zr361   2.385       .  S
O358       Zr377   2.368       .  S
Zr359       O384   2.443       .  S
Zr359       O378   2.508       .  S
Zr359       O386   2.486       .  S
Zr359       O374   2.491       .  S
Zr359       O365   2.411       .  S
Zr359       O366   2.416       .  S
Zr359       O367   2.405       .  S
Zr359       O368   2.383       .  S
Zr360       O379   2.435       .  S
Zr360       O372   2.435       .  S
Zr360       O373   2.514       .  S
Zr360       O366   2.408       .  S
Zr360       O367   2.409       .  S
Zr361       O363   2.436       .  S
Zr361       O385   2.440       .  S
Zr361       O387   2.490       .  S
Zr361       O365   2.385       .  S
Zr361       O368   2.403       .  S
Zr362       O388   2.435       .  S
Zr362       O389   2.438       .  S
Zr362       O364   2.439       .  S
Zr362       O365   2.402       .  S
Zr362       O366   2.361       .  S
O363        H400   0.990       .  S
O364        H395   0.988       .  S
O364        H409   0.990       .  S
O366        H392   0.956       .  S
O367       Zr377   2.395       .  S
O368       Zr377   2.397       .  S
O368        H393   0.964       .  S
C371        C483   1.578   1_455  S
O372        H408   0.990       .  S
O373        C375   1.308       .  A
O374        C375   1.291       .  A
O376       Zr377   2.436       .  S
O376        H405   0.990       .  S
Zr377       O380   2.438       .  S
Zr377       O381   2.435       .  S
Zr377       O382   2.397       .  S
O378        C383   1.303       .  A
O379        H396   0.989       .  S
O379        H411   0.990       .  S
O380        H397   0.989       .  S
O381        H401   0.990       .  S
O381        H410   0.990       .  S
O382        C383   1.274       .  A
C383        C414   1.552   1_565  S
O384        H403   0.989       .  S
O384        H407   0.988       .  S
O385        H399   0.990       .  S
O385        H406   0.990       .  S
O386        C390   1.295       .  A
O387        C390   1.297       .  A
O388        H398   0.990       .  S
O389        H402   0.990       .  S
C413        C668   1.539       .  S
C413        C688   1.547       .  S
C414        C650   1.502   1_545  S
C414        C686   1.553       .  S
C415        C441   1.546   1_545  S
C415        C632   1.542       .  S
C415        C670   1.510       .  S
C416        C511   1.538       .  S
C416        C634   1.531       .  S
C416        C652   1.512       .  S
Zr417       O418   2.437       .  S
Zr417       O419   2.492       .  S
Zr417       O420   2.485       .  S
Zr417       O423   2.580       .  S
Zr417       O425   2.416       .  S
Zr417       O426   2.419       .  S
Zr417       O427   2.430       .  S
Zr417       O428   2.380       .  S
O418        H474   0.990       .  S
O418        H482   0.989       .  S
O419        C439   1.298       .  A
O420        C441   1.299       .  A
O421       Zr431   2.428       .  S
O421        C440   1.293       .  A
O422       Zr430   2.423       .  S
O422        C441   1.282       .  A
O423        C440   1.306       .  A
O424       Zr432   2.410       .  S
O424        C439   1.267       .  A
O425       Zr430   2.417       .  S
O425       Zr432   2.407       .  S
O426       Zr431   2.394       .  S
O426       Zr432   2.383       .  S
O426        H461   0.964       .  S
O427       Zr430   2.406       .  S
O427       Zr447   2.398       .  S
O427        H464   0.965       .  S
O428       Zr431   2.351       .  S
O428       Zr447   2.342       .  S
Zr429       O454   2.432       .  S
Zr429       O448   2.526       .  S
Zr429       O456   2.489       .  S
Zr429       O444   2.566       .  S
Zr429       O435   2.411       .  S
Zr429       O436   2.423       .  S
Zr429       O437   2.392       .  S
Zr429       O438   2.391       .  S
Zr430       O449   2.439       .  S
Zr430       O442   2.431       .  S
Zr430       O443   2.463       .  S
Zr430       O436   2.379       .  S
Zr430       O437   2.385       .  S
Zr431       O433   2.436       .  S
Zr431       O455   2.441       .  S
Zr431       O457   2.413       .  S
Zr431       O435   2.389       .  S
Zr431       O438   2.394       .  S
Zr432       O458   2.431       .  S
Zr432       O459   2.441       .  S
Zr432       O434   2.449       .  S
Zr432       O435   2.385       .  S
Zr432       O436   2.356       .  S
O433        H470   0.990       .  S
O434        H465   0.989       .  S
O434        H479   0.990       .  S
O436        H462   0.957       .  S
O437       Zr447   2.404       .  S
O438       Zr447   2.398       .  S
O438        H463   0.966       .  S
C440        C484   1.573   1_655  S
O442        H478   0.989       .  S
O443        C445   1.299       .  A
O444        C445   1.303       .  A
O446       Zr447   2.441       .  S
O446        H475   0.990       .  S
Zr447       O450   2.435       .  S
Zr447       O451   2.431       .  S
Zr447       O452   2.374       .  S
O448        C453   1.311       .  A
O449        H466   0.988       .  S
O449        H481   0.989       .  S
O450        H467   0.990       .  S
O451        H471   0.990       .  S
O451        H480   0.990       .  S
O452        C453   1.265       .  A
O454        H473   0.988       .  S
O454        H477   0.990       .  S
O455        H469   0.989       .  S
O455        H476   0.990       .  S
O456        C460   1.302       .  A
O457        C460   1.279       .  A
O458        H468   0.990       .  S
O459        H472   0.991       .  S
C483        C596   1.516       .  S
C483        C616   1.561   1_655  S
C484        C578   1.531       .  S
C484        C614   1.554       .  S
C485        C562   1.548       .  S
C485        C598   1.509       .  S
C486        C510   1.558   1_655  S
C486        C560   1.548   1_655  S
C486        C580   1.508       .  S
Zr487       O488   2.441       .  S
Zr487       O489   2.532       .  S
Zr487       O490   2.474       .  S
Zr487       O493   2.523       .  S
Zr487       O495   2.377       .  S
Zr487       O496   2.413       .  S
Zr487       O497   2.432       .  S
Zr487       O498   2.388       .  S
O488        H544   0.991       .  S
O488        H552   0.990       .  S
O489        C509   1.310       .  A
O490        C511   1.297       .  A
O491       Zr501   2.487       .  S
O491        C510   1.302       .  A
O492       Zr500   2.436       .  S
O492        C511   1.282       .  A
O493        C510   1.296       .  A
O494       Zr502   2.395       .  S
O494        C509   1.270       .  A
O495       Zr500   2.409       .  S
O495       Zr502   2.397       .  S
O496       Zr501   2.393       .  S
O496       Zr502   2.393       .  S
O496        H531   0.965       .  S
O497       Zr500   2.399       .  S
O497       Zr517   2.412       .  S
O497        H534   0.964       .  S
O498       Zr501   2.341       .  S
O498       Zr517   2.351       .  S
Zr499       O524   2.442       .  S
Zr499       O518   2.525       .  S
Zr499       O526   2.493       .  S
Zr499       O514   2.564       .  S
Zr499       O505   2.427       .  S
Zr499       O506   2.411       .  S
Zr499       O507   2.394       .  S
Zr499       O508   2.400       .  S
Zr500       O519   2.430       .  S
Zr500       O512   2.435       .  S
Zr500       O513   2.436       .  S
Zr500       O506   2.388       .  S
Zr500       O507   2.397       .  S
Zr501       O503   2.435       .  S
Zr501       O525   2.437       .  S
Zr501       O527   2.436       .  S
Zr501       O505   2.397       .  S
Zr501       O508   2.408       .  S
Zr502       O528   2.428       .  S
Zr502       O529   2.439       .  S
Zr502       O504   2.433       .  S
Zr502       O505   2.405       .  S
Zr502       O506   2.334       .  S
O503        H540   0.989       .  S
O504        H535   0.990       .  S
O504        H549   0.990       .  S
O506        H532   0.958       .  S
O507       Zr517   2.403       .  S
O508       Zr517   2.387       .  S
O508        H533   0.966       .  S
O512        H548   0.991       .  S
O513        C515   1.290       .  A
O514        C515   1.306       .  A
O516       Zr517   2.439       .  S
O516        H545   0.990       .  S
Zr517       O520   2.433       .  S
Zr517       O521   2.443       .  S
Zr517       O522   2.407       .  S
O518        C523   1.311       .  A
O519        H536   0.989       .  S
O519        H551   0.990       .  S
O520        H537   0.989       .  S
O521        H541   0.989       .  S
O521        H550   0.989       .  S
O522        C523   1.273       .  A
O524        H543   0.991       .  S
O524        H547   0.989       .  S
O525        H539   0.987       .  S
O525        H546   0.989       .  S
O526        C530   1.301       .  A
O527        C530   1.284       .  A
O528        H538   0.991       .  S
O529        H542   0.991       .  S
C553        C561   1.497       .  S
C553        C554   1.406       .  A
C553        C558   1.409       .  A
C554        C555   1.401   1_556  A
C554        H563   1.084       .  S
C555        C556   1.406       .  A
C555        H564   1.084       .  S
C556        C559   1.496       .  S
C556        C557   1.408       .  A
C557        C558   1.400   1_554  A
C557        H565   1.080       .  S
C558        H566   1.079       .  S
C559        H567   1.079       .  S
C559        C560   1.358   1_655  D
C560        H568   1.082       .  S
C561        H569   1.083   1_655  S
C561        C562   1.357       .  D
C562        H570   1.082       .  S
C571        C579   1.451       .  S
C571        C572   1.402   1_655  A
C571        C576   1.394       .  A
C572        C573   1.395       .  A
C572        H581   1.083       .  S
C573        C574   1.395       .  A
C573        H582   1.078       .  S
C574        C577   1.467       .  S
C574        C575   1.402   1_455  A
C575        C576   1.382       .  A
C575        H583   1.077       .  S
C576        H584   1.084       .  S
C577        H585   1.075       .  S
C577        C578   1.332       .  D
C578        H586   1.094   1_455  S
C579        H587   1.087       .  S
C579        C580   1.353       .  D
C580        H588   1.080       .  S
C589        C597   1.458       .  S
C589        C590   1.401   1_655  A
C589        C594   1.400       .  A
C590        C591   1.395       .  A
C590        H599   1.083       .  S
C591        C592   1.399   1_455  A
C591        H600   1.083       .  S
C592        C595   1.452       .  S
C592        C593   1.396       .  A
C593        C594   1.386       .  A
C593        H601   1.083       .  S
C594        H602   1.084       .  S
C595        H603   1.084       .  S
C595        C596   1.348       .  D
C596        H604   1.089       .  S
C597        H605   1.083   1_655  S
C597        C598   1.348       .  D
C598        H606   1.085       .  S
C607        C615   1.519   1_455  S
C607        C608   1.406   1_556  A
C607        C612   1.414   1_556  A
C608        C609   1.409       .  A
C608        H617   1.083       .  S
C609        C610   1.415       .  A
C609        H618   1.078       .  S
C610        C613   1.525       .  S
C610        C611   1.410       .  A
C611        C612   1.414       .  A
C611        H619   1.083       .  S
C612        H620   1.080   1_454  S
C613        H621   1.084   1_455  S
C613        C614   1.362       .  D
C614        H622   1.081       .  S
C615        H623   1.086       .  S
C615        C616   1.357   1_655  D
C616        H624   1.083       .  S
C625        C633   1.494       .  S
C625        C626   1.408       .  A
C625        C630   1.406   1_545  A
C626        C627   1.412   1_455  A
C626        H635   1.083       .  S
C627        C628   1.409   1_545  A
C627        H636   1.082       .  S
C628        C631   1.483       .  S
C628        C629   1.399       .  A
C629        C630   1.386   1_655  A
C629        H637   1.084       .  S
C630        H638   1.083       .  S
C631        H639   1.087       .  S
C631        C632   1.350   1_565  D
C632        H640   1.086       .  S
C633        H641   1.083       .  S
C633        C634   1.350       .  D
C634        H642   1.088       .  S
C643        C651   1.443   1_565  S
C643        C644   1.390   1_565  A
C643        C648   1.394       .  A
C644        C645   1.384       .  A
C644        H653   1.084       .  S
C645        C646   1.414   1_545  A
C645        H654   1.080       .  S
C646        C649   1.459       .  S
C646        C647   1.392       .  A
C647        C648   1.380       .  A
C647        H655   1.082       .  S
C648        H656   1.071       .  S
C649        H657   1.086       .  S
C649        C650   1.322       .  D
C650        H658   1.086   1_565  S
C651        H659   1.081       .  S
C651        C652   1.363       .  D
C652        H660   1.085       .  S
C661        C669   1.467       .  S
C661        C662   1.399   1_565  A
C661        C666   1.406       .  A
C662        C663   1.394   1_545  A
C662        H671   1.083       .  S
C663        C664   1.409       .  A
C663        H672   1.081   1_565  S
C664        C667   1.470       .  S
C664        C665   1.400       .  A
C665        C666   1.395       .  A
C665        H673   1.082       .  S
C666        H674   1.082       .  S
C667        H675   1.085       .  S
C667        C668   1.352       .  D
C668        H676   1.086   1_565  S
C669        H677   1.084       .  S
C669        C670   1.360   1_565  D
C670        H678   1.085       .  S
C679        C687   1.503       .  S
C679        C680   1.405   1_565  A
C679        C684   1.411       .  A
C680        C681   1.402   1_655  A
C680        H689   1.081       .  S
C681        C682   1.407   1_545  A
C681        H690   1.081       .  S
C682        C685   1.506       .  S
C682        C683   1.410       .  A
C683        C684   1.412   1_455  A
C683        H691   1.083       .  S
C684        H692   1.082       .  S
C685        H693   1.085       .  S
C685        C686   1.360   1_565  D
C686        H694   1.088       .  S
C687        H695   1.085       .  S
C687        C688   1.355       .  D
C688        H696   1.087       .  S
C697        C705   1.489       .  S
C697        C698   1.400       .  A
C697        C702   1.405   1_554  A
C698        C699   1.402   1_545  A
C698        H707   1.082       .  S
C699        C700   1.411   1_554  A
C699        H708   1.076       .  S
C700        C703   1.496       .  S
C700        C701   1.403       .  A
C701        C702   1.398   1_565  A
C701        H709   1.080       .  S
C702        H710   1.080       .  S
C703        H711   1.086       .  S
C703        C704   1.354   1_556  D
C704        H712   1.078       .  S
C705        H713   1.083       .  S
C705        C706   1.350   1_554  D
C706        H714   1.083       .  S
C715        C723   1.444   1_554  S
C715        C716   1.391       .  A
C715        C720   1.403   1_554  A
C716        C717   1.376       .  A
C716        H725   1.080       .  S
C717        C718   1.402       .  A
C717        H726   1.083       .  S
C718        C721   1.448       .  S
C718        C719   1.395   1_554  A
C719        C720   1.388       .  A
C719        H727   1.084       .  S
C720        H728   1.080       .  S
C721        H729   1.080   1_554  S
C721        C722   1.344       .  D
C722        H730   1.089       .  S
C723        H731   1.088       .  S
C723        C724   1.335   1_556  D
C724        H732   1.089       .  S
C733        C741   1.430       .  S
C733        C734   1.386   1_554  A
C733        C738   1.402       .  A
C734        C735   1.372       .  A
C734        H743   1.084       .  S
C735        C736   1.409       .  A
C735        H744   1.083       .  S
C736        C739   1.449       .  S
C736        C737   1.395   1_556  A
C737        C738   1.385       .  A
C737        H745   1.084       .  S
C738        H746   1.083       .  S
C739        H747   1.087       .  S
C739        C740   1.335   1_556  D
C740        H748   1.088       .  S
C741        H749   1.087       .  S
C741        C742   1.329   1_554  D
C742        H750   1.083       .  S
C751        C759   1.495       .  S
C751        C752   1.407       .  A
C751        C756   1.407   1_554  A
C752        C753   1.395   1_545  A
C752        H761   1.083       .  S
C753        C754   1.402       .  A
C753        H762   1.081       .  S
C754        C757   1.497       .  S
C754        C755   1.411   1_554  A
C755        C756   1.413   1_565  A
C755        H763   1.083       .  S
C756        H764   1.082       .  S
C757        H765   1.086       .  S
C757        C758   1.357       .  D
C758        H766   1.086       .  S
C759        H767   1.074       .  S
C759        C760   1.356   1_554  D
C760        H768   1.086       .  S
C769        C777   1.463       .  S
C769        C770   1.394       .  A
C769        C774   1.410       .  A
C770        C771   1.384   1_565  A
C770        H779   1.083       .  S
C771        C772   1.405       .  A
C771        H780   1.084       .  S
C772        C775   1.456       .  S
C772        C773   1.394       .  A
C773        C774   1.391   1_545  A
C773        H781   1.084       .  S
C774        H782   1.082       .  S
C775        H783   1.085       .  S
C775        C776   1.351       .  D
C776        H784   1.082       .  S
C777        H785   1.086       .  S
C777        C778   1.345       .  D
C778        H786   1.087       .  S
C787        C795   1.496       .  S
C787        C788   1.407       .  A
C787        C792   1.407       .  A
C788        C789   1.402       .  A
C788        H797   1.084       .  S
C789        C790   1.408       .  A
C789        H798   1.081       .  S
C790        C793   1.494       .  S
C790        C791   1.406       .  A
C791        C792   1.401       .  A
C791        H799   1.083       .  S
C792        H800   1.081       .  S
C793        H801   1.087       .  S
C793        C794   1.351       .  D
C794        H802   1.085       .  S
C795        H803   1.080       .  S
C795        C796   1.358       .  D
C796        H804   1.085       .  S
C805        C813   1.518       .  S
C805        C806   1.409       .  A
C805        C810   1.413       .  A
C806        C807   1.410       .  A
C806        H815   1.083       .  S
C807        C808   1.413       .  A
C807        H816   1.078       .  S
C808        C811   1.519       .  S
C808        C809   1.410       .  A
C809        C810   1.411       .  A
C809        H817   1.083       .  S
C810        H818   1.080       .  S
C811        H819   1.081       .  S
C811        C812   1.362       .  D
C812        H820   1.082       .  S
C813        H821   1.086       .  S
C813        C814   1.359       .  D
C814        H822   1.085       .  S
C823        C831   1.461       .  S
C823        C824   1.400       .  A
C823        C828   1.404       .  A
C824        C825   1.386   1_545  A
C824        H833   1.084       .  S
C825        C826   1.394       .  A
C825        H834   1.076       .  S
C826        C829   1.457       .  S
C826        C827   1.399       .  A
C827        C828   1.398   1_565  A
C827        H835   1.083       .  S
C828        H836   1.082       .  S
C829        H837   1.087       .  S
C829        C830   1.357       .  D
C830        H838   1.083       .  S
C831        H839   1.083       .  S
C831        C832   1.348       .  D
C832        H840   1.089       .  S
C841        C849   1.441       .  S
C841        C842   1.409       .  A
C841        C846   1.396       .  A
C842        C843   1.376   1_554  A
C842        H851   1.084       .  S
C843        C844   1.395       .  A
C843        H852   1.081       .  S
C844        C847   1.463       .  S
C844        C845   1.397       .  A
C845        C846   1.393   1_556  A
C845        H853   1.078       .  S
C846        H854   1.083       .  S
C847        H855   1.087       .  S
C847        C848   1.369       .  D
C848        H856   1.086       .  S
C849        H857   1.086       .  S
C849        C850   1.319       .  D
C850        H858   1.094       .  S
C859        C867   1.492       .  S
C859        C860   1.407       .  A
C859        C864   1.407       .  A
C860        C861   1.411       .  A
C860        H869   1.083       .  S
C861        C862   1.409       .  A
C861        H870   1.083       .  S
C862        C865   1.482       .  S
C862        C863   1.397       .  A
C863        C864   1.389       .  A
C863        H871   1.084       .  S
C864        H872   1.082       .  S
C865        H873   1.087       .  S
C865        C866   1.345       .  D
C866        H874   1.087       .  S
C867        H875   1.084       .  S
C867        C868   1.348       .  D
C868        H876   1.089       .  S
C877        C885   1.502       .  S
C877        C878   1.402       .  A
C877        C882   1.412       .  A
C878        C879   1.398       .  A
C878        H887   1.083       .  S
C879        C880   1.410       .  A
C879        H888   1.080       .  S
C880        C883   1.513       .  S
C880        C881   1.412       .  A
C881        C882   1.416       .  A
C881        H889   1.083       .  S
C882        H890   1.082       .  S
C883        H891   1.086       .  S
C883        C884   1.357       .  D
C884        H892   1.085       .  S
C885        H893   1.083       .  S
C885        C886   1.355       .  D
C886        H894   1.086       .  S
C895        C903   1.460       .  S
C895        C896   1.397       .  A
C895        C900   1.400       .  A
C896        C897   1.385   1_554  A
C896        H905   1.083       .  S
C897        C898   1.401       .  A
C897        H906   1.077       .  S
C898        C901   1.465       .  S
C898        C899   1.400       .  A
C899        C900   1.397   1_556  A
C899        H907   1.078       .  S
C900        H908   1.082       .  S
C901        H909   1.086       .  S
C901        C902   1.352       .  D
C902        H910   1.089       .  S
C903        H911   1.081       .  S
C903        C904   1.354       .  D
C904        H912   1.089       .  S
C913        C921   1.464       .  S
C913        C914   1.407       .  A
C913        C918   1.397       .  A
C914        C915   1.388       .  A
C914        H923   1.078       .  S
C915        C916   1.395   1_655  A
C915        H924   1.084   1_655  S
C916        C919   1.449       .  S
C916        C917   1.400       .  A
C917        C918   1.386   1_455  A
C917        H925   1.081       .  S
C918        H926   1.083       .  S
C919        H927   1.086       .  S
C919        C920   1.338       .  D
C920        H928   1.091       .  S
C921        H929   1.087       .  S
C921        C922   1.337       .  D
C922        H930   1.086       .  S
C931        C939   1.485       .  S
C931        C932   1.400       .  A
C931        C936   1.405       .  A
C932        C933   1.400       .  A
C932        H941   1.080       .  S
C933        C934   1.409       .  A
C933        H942   1.076       .  S
C934        C937   1.497       .  S
C934        C935   1.404       .  A
C935        C936   1.401       .  A
C935        H943   1.083       .  S
C936        H944   1.083       .  S
C937        H945   1.085       .  S
C937        C938   1.352       .  D
C938        H946   1.082       .  S
C939        H947   1.085       .  S
C939        C940   1.346       .  D
C940        H948   1.083       .  S
C949        C957   1.505       .  S
C949        C950   1.406       .  A
C949        C954   1.408       .  A
C950        C951   1.412       .  A
C950        H959   1.081       .  S
C951        C952   1.412       .  A
C951        H960   1.079       .  S
C952        C955   1.511       .  S
C952        C953   1.407       .  A
C953        C954   1.405       .  A
C953        H961   1.083       .  S
C954        H962   1.082       .  S
C955        H963   1.083       .  S
C955        C956   1.360       .  D
C956        H964   1.076       .  S
C957        H965   1.081       .  S
C957        C958   1.356       .  D
C958        H966   1.084       .  S
C967        C975   1.452       .  S
C967        C968   1.391   1_455  A
C967        C972   1.405       .  A
C968        C969   1.386       .  A
C968        H977   1.083   1_655  S
C969        C970   1.408       .  A
C969        H978   1.077       .  S
C970        C973   1.449       .  S
C970        C971   1.390       .  A
C971        C972   1.375   1_655  A
C971        H979   1.083       .  S
C972        H980   1.080       .  S
C973        H981   1.088       .  S
C973        C974   1.332       .  D
C974        H982   1.084       .  S
C975        H983   1.082       .  S
C975        C976   1.340       .  D
C976        H984   1.090       .  S
