geometry optimzed in LAMMPS
_audit_creation_date              2020-11-30 
_audit_creation_method            'lammps2cif' 
_symmetry_space_group_name_H-M    'P1' 
_symmetry_Int_Tables_number       1 
_symmetry_cell_setting            triclinic 
loop_ 
_symmetry_equiv_pos_as_xyz 
  x,y,z 
_cell_length_a                    64.70485343 
_cell_length_b                    65.84920086548944 
_cell_length_c                    39.095180210498306 
_cell_angle_alpha                 86.01860240776163 
_cell_angle_beta                  90.8937242167423 
_cell_angle_gamma                 119.26230603041823 
loop_ 
_atom_site_label 
_atom_site_type_symbol 
_atom_site_fract_x 
_atom_site_fract_y 
_atom_site_fract_z 
_atom_site_charge 
Zr1        Zr  0.81051931  0.34132224  0.17291188     2.17500
O2          O  0.77626367  0.32281855  0.21220852    -0.51200
O3          O  0.80332891  0.37459086  0.17287864    -0.74400
O4          O  0.82068458  0.34480458  0.23365186    -0.81200
O5          O  0.77049545  0.31230964  0.09790959    -0.83000
O6          O  0.86052752  0.36049724  0.23723662    -0.78600
O7          O  0.77010521  0.31738535  0.15479136    -0.90200
O8          O  0.82648956  0.40203646  0.13170390    -0.76200
O9          O  0.84885013  0.37480136  0.16990554    -0.85700
O10         O  0.81580094  0.35852380  0.11579311    -0.85400
O11         O  0.83665948  0.32541529  0.18544550    -0.72100
O12         O  0.80666238  0.31146911  0.13677675    -0.84300
Zr13       Zr  0.87848832  0.34888930  0.08733711     2.26400
Zr14       Zr  0.87499938  0.35944005  0.18147423     2.06300
Zr15       Zr  0.81199547  0.32920692  0.07992303     2.10000
Zr16       Zr  0.85484090  0.39148242  0.11245829     1.78800
O17         O  0.79087252  0.29093540  0.05713929    -0.93100
O18         O  0.87835413  0.42581399  0.14428820    -0.40900
O19         O  0.85083044  0.36264613  0.07534756    -0.77500
O20         O  0.88265533  0.37805984  0.12481184    -0.96200
O21         O  0.87286342  0.33127439  0.14404972    -0.89500
O22         O  0.83977495  0.31544093  0.08969490    -0.92300
C23         C  0.80985199  0.39378654  0.15448939     1.01400
C24         C  0.75975732  0.30953448  0.12665874     1.14300
C25         C  0.83994429  0.35285605  0.25060219     1.05100
O26         O  0.90089317  0.39913161  0.19721216    -0.94500
O27         O  0.91417666  0.36684284  0.16956716    -0.90200
O28         O  0.91769898  0.36189705  0.11328109    -0.83400
C29         C  0.92593161  0.36674197  0.14371891     1.11800
O30         O  0.80909780  0.26798590  0.18945537    -0.96500
Zr31       Zr  0.83486702  0.29784383  0.14622812     1.88900
O32         O  0.88324331  0.31547929  0.07761152    -0.73100
O33         O  0.88917657  0.34198793  0.22644184    -0.52400
O34         O  0.85603333  0.28641189  0.18839952    -0.97100
O35         O  0.80435642  0.26278822  0.12170345    -0.54300
O36         O  0.85756198  0.28474697  0.11299608    -0.73600
C37         C  0.87394820  0.29414518  0.08952819     0.98700
O38         O  0.90967478  0.37530901  0.04651241    -0.62500
O39         O  0.79396150  0.34592854  0.04017127    -0.57300
O40         O  0.86848864  0.34752909  0.02639831    -0.93900
O41         O  0.82913457  0.33612536  0.02318959    -0.92400
O42         O  0.84496693  0.40650268  0.05970111    -0.92700
O43         O  0.88884952  0.42175448  0.07923859    -0.91500
C44         C  0.84946856  0.34249465  0.00955578     1.17500
H45         H  0.80365257  0.36253849  0.10978074     0.33500
H46         H  0.89858064  0.39108965  0.12306688     0.44300
H47         H  0.83803839  0.30487066  0.07255986     0.37900
H48         H  0.83363445  0.31791105  0.20833695     0.34400
H49         H  0.87145424  0.42148211  0.16783581     0.26100
H50         H  0.89776988  0.35435150  0.24244367     0.32100
H51         H  0.86894536  0.30123995  0.19611823     0.38000
H52         H  0.84579165  0.39709115  0.04161989     0.32400
H53         H  0.78160014  0.33246965  0.02862067     0.31300
H54         H  0.77822154  0.29140529  0.04311211     0.33000
H55         H  0.80962042  0.26400847  0.09764202     0.32000
H56         H  0.89620635  0.41342039  0.06898408     0.36000
H57         H  0.91827877  0.39008965  0.05790778     0.28700
H58         H  0.77777242  0.33509262  0.22695815     0.32900
H59         H  0.79602157  0.27141175  0.19297010     0.30400
H60         H  0.78501616  0.35083652  0.05468308     0.28400
H61         H  0.92089464  0.36916897  0.04584897     0.41300
H62         H  0.90581725  0.39731911  0.22082016     0.31300
H63         H  0.89406832  0.42679227  0.14659023     0.38900
H64         H  0.79035184  0.26508450  0.11994152     0.30800
H65         H  0.87486983  0.33009774  0.23947923     0.30900
H66         H  0.77852464  0.31151672  0.22761657     0.31100
Zr67       Zr  0.81148342  0.33443688  0.67590716     2.17500
O68         O  0.78045826  0.31225059  0.71956374    -0.51200
O69         O  0.79540291  0.36171758  0.67292541    -0.74400
O70         O  0.82446725  0.34227259  0.73517981    -0.81200
O71         O  0.77024985  0.30001236  0.60662566    -0.83000
O72         O  0.86450320  0.35870448  0.73547845    -0.78600
O73         O  0.77216290  0.30482570  0.66366799    -0.90200
O74         O  0.81393475  0.38935386  0.62918870    -0.76200
O75         O  0.84611398  0.37141514  0.66783201    -0.85700
O76         O  0.81106608  0.34775441  0.61781058    -0.85400
O77         O  0.84306042  0.32536299  0.68593945    -0.72100
O78         O  0.81098554  0.30518194  0.64125123    -0.84300
Zr79       Zr  0.87895917  0.34971157  0.58359615     2.26400
Zr80       Zr  0.87757746  0.36269266  0.67674327     2.06300
Zr81       Zr  0.81087264  0.31926948  0.58340148     2.10000
Zr82       Zr  0.84618312  0.38460057  0.60949338     1.78800
O83         O  0.79485037  0.27994728  0.56482332    -0.93100
O84         O  0.86418386  0.42029542  0.63972305    -0.40900
O85         O  0.84596967  0.35647552  0.57400558    -0.77500
O86         O  0.87939438  0.37843622  0.61901825    -0.96200
O87         O  0.87878664  0.33521319  0.64107061    -0.89500
O88         O  0.84386549  0.31249575  0.59094164    -0.92300
C89         C  0.79808960  0.37929548  0.65292416     1.01400
C90         C  0.76065965  0.29666338  0.63654371     1.14300
C91         C  0.84434142  0.35056413  0.75062697     1.05100
O92         O  0.89471631  0.40246969  0.69386090    -0.94500
O93         O  0.91778088  0.38011072  0.65827020    -0.90200
O94         O  0.92006961  0.37426753  0.60218446    -0.83400
C95         C  0.92942326  0.38281861  0.63072526     1.11800
O96         O  0.81977728  0.26853970  0.69291783    -0.96500
Zr97       Zr  0.84409619  0.29831964  0.64848411     1.88900
O98         O  0.88964267  0.31954704  0.57597741    -0.73100
O99         O  0.90321060  0.35325315  0.71278117    -0.52400
O100        O  0.86755370  0.29111882  0.69196234    -0.97100
O101        O  0.81846315  0.26118542  0.62408351    -0.54300
O102        O  0.87181006  0.29033959  0.61786415    -0.73600
C103        C  0.88572204  0.30014083  0.59156095     0.98700
O104        O  0.90670344  0.37105695  0.53587304    -0.62500
O105        O  0.78470747  0.32690534  0.54575063    -0.57300
O106        O  0.86544504  0.34852521  0.52461682    -0.93900
O107        O  0.82517521  0.32774502  0.52440457    -0.92400
O108        O  0.83015623  0.39387725  0.55776083    -0.92700
O109        O  0.87539698  0.41687549  0.57234128    -0.91500
C110        C  0.84551310  0.33931992  0.50916103     1.17500
H111        H  0.79686446  0.34861032  0.61276484     0.33500
H112        H  0.89368993  0.39322986  0.61494804     0.44300
H113        H  0.84346397  0.30206860  0.57446776     0.37900
H114        H  0.84226137  0.31892557  0.70914271     0.34400
H115        H  0.85856817  0.43037085  0.62767754     0.26100
H116        H  0.90394533  0.35977632  0.73510497     0.32100
H117        H  0.88422445  0.30145965  0.68430961     0.38000
H118        H  0.81570711  0.37907067  0.55348329     0.32400
H119        H  0.77148620  0.31138538  0.54086487     0.31300
H120        H  0.78482225  0.27942046  0.54514289     0.33000
H121        H  0.82319687  0.25017167  0.63528111     0.32000
H122        H  0.87972303  0.40930583  0.55490664     0.36000
H123        H  0.91425566  0.38772621  0.54068776     0.28700
H124        H  0.78028371  0.32375322  0.73442462     0.32900
H125        H  0.81225220  0.27577238  0.70569344     0.35800
H126        H  0.77749284  0.33377959  0.55992062     0.28400
H127        H  0.91944620  0.36686880  0.53827172     0.41300
H128        H  0.90652954  0.40374417  0.71121059     0.31300
H129        H  0.85593388  0.41588857  0.66236760     0.38900
H130        H  0.82401899  0.26322823  0.59999963     0.30800
H131        H  0.89410173  0.33613257  0.71747155     0.30900
H132        H  0.78609043  0.30313156  0.73420337     0.31100
Zr133      Zr  0.52477443  0.20607036  0.14290126     2.17500
O134        O  0.53274963  0.23858857  0.17738158    -0.51200
O135        O  0.56699440  0.21683550  0.14704167    -0.74400
O136        O  0.51979526  0.19583272  0.20414112    -0.81200
O137        O  0.54010007  0.24678697  0.06229332    -0.83000
O138        O  0.49539901  0.15681209  0.21292174    -0.78600
O139        O  0.54155094  0.24554076  0.12028896    -0.90200
O140        O  0.57427068  0.19327812  0.11536684    -0.76200
O141        O  0.52219187  0.16885291  0.14924623    -0.85700
O142        O  0.53961396  0.20191304  0.09039982    -0.85400
O143        O  0.48291439  0.18012780  0.15176678    -0.72100
O144        O  0.49911767  0.20931299  0.09992691    -0.84300
Zr145      Zr  0.47215361  0.13956686  0.06136985     2.26400
Zr146      Zr  0.48068919  0.14278156  0.15760555     2.06300
Zr147      Zr  0.51515105  0.20572139  0.04763569     2.10000
Zr148      Zr  0.53664086  0.16423549  0.09630165     1.78800
O149        O  0.49676187  0.22615131  0.01749217    -0.93100
O150        O  0.55148507  0.14482421  0.13687722    -0.40900
O151        O  0.51296901  0.16803898  0.05183215    -0.77500
O152        O  0.49587227  0.13595027  0.10657505    -0.96200
O153        O  0.45576017  0.14370023  0.11252746    -0.89500
O154        O  0.47415926  0.17685721  0.05437938    -0.92300
C155        C  0.58102838  0.21086961  0.13325470     1.01400
C156        C  0.54677649  0.25667386  0.09090296     1.14300
C157        C  0.50878235  0.17703923  0.22351477     1.05100
O158        O  0.48944270  0.11505604  0.18991762    -0.94500
O159        O  0.45144006  0.10379984  0.14754077    -0.90200
O160        O  0.44730502  0.10064993  0.08993753    -0.83400
C161        C  0.44220448  0.09227162  0.12131901     1.11800
O162        O  0.45090253  0.20692120  0.13872865    -0.96500
Zr163      Zr  0.45755471  0.18044661  0.10573260     1.88900
O164        O  0.43394492  0.13257903  0.04229465    -0.73100
O165        O  0.44696491  0.13390018  0.19478862    -0.52400
O166        O  0.42569018  0.15885079  0.14824206    -0.97100
O167        O  0.44958388  0.20808466  0.07131698    -0.54300
O168        O  0.42383508  0.15597960  0.06927902    -0.73600
C169        C  0.41970320  0.14024781  0.04807814     0.98700
O170        O  0.47045816  0.10934747  0.02703952    -0.62500
O171        O  0.55161177  0.22486002  0.01314346    -0.57300
O172        O  0.48280190  0.14952759  0.00079777    -0.93900
O173        O  0.50741336  0.18873086  0.99254485    -0.92400
O174        O  0.56216249  0.17513679  0.04551846    -0.92700
O175        O  0.53556730  0.13047793  0.07263191    -0.91500
C176        C  0.49559374  0.16821013  0.98167216     1.17500
H177        H  0.55546602  0.21432360  0.08473361     0.33500
H178        H  0.49405965  0.12044570  0.10835241     0.44300
H179        H  0.46562060  0.17794944  0.03449192     0.37900
H180        H  0.47775161  0.18340386  0.17271647     0.34400
H181        H  0.56700927  0.14835399  0.12708100     0.26100
H182        H  0.44747828  0.12347881  0.21389295     0.32100
H183        H  0.41924354  0.14221870  0.14387676     0.38000
H184        H  0.57525940  0.17220056  0.05274238     0.32400
H185        H  0.55485747  0.21212160  0.00822462     0.31300
H186        H  0.50921457  0.23755938  0.00115339     0.33000
H187        H  0.44897603  0.20380856  0.04739889     0.32000
H188        H  0.52424409  0.12669046  0.05364109     0.36000
H189        H  0.47826655  0.10202669  0.04099151     0.28700
H190        H  0.54379187  0.23894830  0.19547333     0.32900
H191        H  0.43377789  0.20176858  0.13695010     0.35800
H192        H  0.54720669  0.22953592  0.99079867     0.28400
H193        H  0.45354981  0.09726237  0.02668842     0.41300
H194        H  0.50489367  0.11819632  0.18038902     0.31300
H195        H  0.55547919  0.15380225  0.15756295     0.38900
H196        H  0.46435192  0.22323901  0.07201750     0.30800
H197        H  0.45094626  0.14856287  0.20539743     0.30900
H198        H  0.51765810  0.23410515  0.18949933     0.31100
Zr199      Zr  0.52447870  0.19516506  0.65111882     2.17500
O200        O  0.52045310  0.21935034  0.69228377    -0.51200
O201        O  0.56723555  0.21045297  0.65921266    -0.74400
O202        O  0.51861416  0.17920283  0.71024470    -0.81200
O203        O  0.53928574  0.24264192  0.57974164    -0.83000
O204        O  0.49297922  0.14040019  0.71052702    -0.78600
O205        O  0.53823321  0.23601330  0.63741526    -0.90200
O206        O  0.57932195  0.18959753  0.62915057    -0.76200
O207        O  0.52839205  0.16114315  0.64964249    -0.85700
O208        O  0.54409073  0.19913691  0.59817101    -0.85400
O209        O  0.48405497  0.16387842  0.65332573    -0.72100
O210        O  0.49915484  0.19862796  0.60802629    -0.84300
Zr211      Zr  0.48454546  0.13670549  0.55346065     2.26400
Zr212      Zr  0.48856556  0.12999390  0.65124460     2.06300
Zr213      Zr  0.51996892  0.20379131  0.55539752     2.10000
Zr214      Zr  0.54681533  0.16434521  0.59571557     1.78800
O215        O  0.49965997  0.22368723  0.52954553    -0.93100
O216        O  0.55811222  0.13825096  0.62756787    -0.40900
O217        O  0.52374706  0.16946818  0.55142749    -0.77500
O218        O  0.50774646  0.13155008  0.59827354    -0.96200
O219        O  0.46464433  0.13256521  0.60591747    -0.89500
O220        O  0.48069751  0.17094892  0.55480630    -0.92300
C221        C  0.58310146  0.20578373  0.64860062     1.01400
C222        C  0.54355095  0.24983410  0.61037200     1.14300
C223        C  0.50531907  0.15919021  0.72574093     1.05100
O224        O  0.50913972  0.10899870  0.67160619    -0.94500
O225        O  0.46075443  0.09308439  0.63072755    -0.90200
O226        O  0.45668218  0.09612574  0.57285337    -0.83400
C227        C  0.45128308  0.08475662  0.60245123     1.11800
O228        O  0.44242591  0.18173756  0.64377329    -0.96500
Zr229      Zr  0.45974791  0.16550592  0.60683613     1.88900
O230        O  0.44672593  0.12747687  0.52982415    -0.73100
O231        O  0.45412709  0.10250729  0.68649805    -0.52400
O232        O  0.42770866  0.13675781  0.64463897    -0.97100
O233        O  0.44984936  0.19388750  0.57940869    -0.54300
O234        O  0.42970412  0.14020138  0.56648800    -0.73600
C235        C  0.42888127  0.12883136  0.54038488     0.98700
O236        O  0.49308685  0.11252680  0.51799218    -0.62500
O237        O  0.55647604  0.22824627  0.52230510    -0.57300
O238        O  0.49629480  0.15394493  0.49543674    -0.93900
O239        O  0.51646305  0.19363113  0.49615838    -0.92400
O240        O  0.58156356  0.18728046  0.55850193    -0.92700
O241        O  0.55365978  0.14215182  0.55432699    -0.91500
C242        C  0.50737414  0.17462281  0.48069237     1.17500
H243        H  0.55954743  0.21286384  0.59632216     0.33500
H244        H  0.50820597  0.11724314  0.59615012     0.44300
H245        H  0.47228474  0.17277353  0.53523582     0.37900
H246        H  0.47645453  0.16346536  0.67462702     0.34400
H247        H  0.55547749  0.13957032  0.65199937     0.26100
H248        H  0.46012703  0.09965932  0.70874028     0.32100
H249        H  0.41299201  0.13351468  0.63245678     0.38000
H250        H  0.57846913  0.19908518  0.54600259     0.32400
H251        H  0.55602616  0.24279678  0.51559250     0.31300
H252        H  0.51016422  0.23367825  0.51013728     0.33000
H253        H  0.44729049  0.19013469  0.55509430     0.32000
H254        H  0.54147208  0.13910048  0.53677952     0.36000
H255        H  0.48935602  0.09823212  0.53264248     0.28700
H256        H  0.53254334  0.22211012  0.70990201     0.32900
H257        H  0.45556731  0.19174985  0.65852918     0.35800
H258        H  0.56933077  0.23288216  0.53909419     0.28400
H259        H  0.48070324  0.10728069  0.50039673     0.41300
H260        H  0.51451376  0.11434283  0.69478221     0.31300
H261        H  0.54575077  0.12231164  0.62270234     0.38900
H262        H  0.46481357  0.20893336  0.57910042     0.30800
H263        H  0.44594194  0.11132878  0.69162360     0.30900
H264        H  0.50498008  0.20939835  0.70424987     0.31100
Zr265      Zr  0.66836956  0.48029027  0.15845439     2.17500
O266        O  0.68308480  0.46059230  0.19898426    -0.51200
O267        O  0.63920952  0.43850024  0.15579842    -0.74400
O268        O  0.66381490  0.48524838  0.21913121    -0.81200
O269        O  0.70746475  0.47984587  0.08550943    -0.83000
O270        O  0.64556863  0.50697780  0.22093151    -0.78600
O271        O  0.70019550  0.47323831  0.14286300    -0.90200
O272        O  0.60838428  0.43413004  0.12259962    -0.76200
O273        O  0.63216373  0.48142780  0.15628885    -0.85700
O274        O  0.65367297  0.47012063  0.10239553    -0.85400
O275        O  0.68067455  0.52082646  0.16621689    -0.72100
O276        O  0.69886334  0.50872332  0.11941518    -0.84300
Zr277      Zr  0.65783864  0.53875817  0.06622094     2.26400
Zr278      Zr  0.64391905  0.52136808  0.16272583     2.06300
Zr279      Zr  0.68386064  0.49760217  0.06362011     2.10000
Zr280      Zr  0.61783393  0.47235975  0.09980606     1.78800
O281        O  0.72197223  0.51791004  0.03319165    -0.93100
O282        O  0.58232689  0.46011713  0.13482059    -0.40900
O283        O  0.64760860  0.49912991  0.05968341    -0.77500
O284        O  0.62749533  0.51183168  0.10693697    -0.96200
O285        O  0.67293446  0.54917429  0.12203651    -0.89500
O286        O  0.69412316  0.53741621  0.06831844    -0.92300
C287        C  0.61960470  0.42596331  0.14062223     1.01400
C288        C  0.71101779  0.47320588  0.11569568     1.14300
C289        C  0.65467775  0.49530903  0.23552230     1.05100
O290        O  0.60142501  0.50278441  0.17433468    -0.94500
O291        O  0.64028756  0.55529103  0.14779833    -0.90200
O292        O  0.64603079  0.56513710  0.09042532    -0.83400
C293        C  0.64161483  0.56823122  0.12108005     1.11800
O294        O  0.73985829  0.55550601  0.16533884    -0.96500
Zr295      Zr  0.70913425  0.54877902  0.12373972     1.88900
O296        O  0.69114261  0.57598951  0.04667395    -0.73100
O297        O  0.64921265  0.54779087  0.20713402    -0.52400
O298        O  0.71918905  0.57948293  0.16262323    -0.97100
O299        O  0.74524380  0.55388890  0.09681251    -0.54300
O300        O  0.71988214  0.58441608  0.08609264    -0.73600
C301        C  0.71124758  0.58978268  0.05919989     0.98700
O302        O  0.63162124  0.54812378  0.03143028    -0.62500
O303        O  0.67127400  0.46274364  0.03258437    -0.57300
O304        O  0.65517140  0.52627186  0.00742832    -0.93900
O305        O  0.67312260  0.50398378  0.00594744    -0.92400
O306        O  0.60411143  0.44517360  0.05480240    -0.92700
O307        O  0.58865434  0.47437778  0.06170549    -0.91500
C308        C  0.66200784  0.51388242  0.99171627     1.17500
H309        H  0.65124257  0.45503715  0.09711581     0.33500
H310        H  0.61352843  0.51354859  0.10464496     0.44300
H311        H  0.70515995  0.54689553  0.04999195     0.37900
H312        H  0.68756467  0.52519424  0.18842656     0.34400
H313        H  0.56953296  0.44728996  0.12276618     0.26100
H314        H  0.63587644  0.53906643  0.22383125     0.32100
H315        H  0.73316769  0.59332880  0.15179592     0.38000
H316        H  0.61512414  0.43874852  0.05510113     0.32400
H317        H  0.68459237  0.46666547  0.01654000     0.31300
H318        H  0.72096925  0.50718416  0.01590217     0.33000
H319        H  0.74459162  0.55883922  0.07250995     0.32000
H320        H  0.59748517  0.48960192  0.04836061     0.36000
H321        H  0.64154603  0.55829647  0.01167182     0.28700
H322        H  0.66949546  0.44988747  0.21430632     0.32900
H323        H  0.73279663  0.54140999  0.18144018     0.35800
H324        H  0.67120454  0.45079122  0.04944486     0.28400
H325        H  0.62012041  0.53338004  0.02162599     0.41300
H326        H  0.59639250  0.51340716  0.16256299     0.31300
H327        H  0.58454249  0.45228589  0.15598936     0.38900
H328        H  0.74300035  0.53792663  0.09624984     0.30800
H329        H  0.66363027  0.55034315  0.21963875     0.30900
H330        H  0.69446234  0.47260756  0.21372042     0.31100
Zr331      Zr  0.66780790  0.47967934  0.66211954     2.17500
O332        O  0.68773594  0.46755573  0.70585599    -0.51200
O333        O  0.64050722  0.43698090  0.66206186    -0.74400
O334        O  0.65981149  0.48416570  0.72145527    -0.81200
O335        O  0.70049541  0.47058292  0.59238510    -0.83000
O336        O  0.64221327  0.50668185  0.72075378    -0.78600
O337        O  0.69813479  0.46994871  0.65021220    -0.90200
O338        O  0.60968396  0.42985549  0.62704249    -0.76200
O339        O  0.63043797  0.47830978  0.65742617    -0.85700
O340        O  0.65440423  0.46746785  0.60630878    -0.85400
O341        O  0.67755018  0.51987090  0.66690122    -0.72100
O342        O  0.69849233  0.50832385  0.62298466    -0.84300
Zr343      Zr  0.65435849  0.53355852  0.56548284     2.26400
Zr344      Zr  0.63962779  0.51797586  0.66128392     2.06300
Zr345      Zr  0.68444793  0.49528874  0.56773647     2.10000
Zr346      Zr  0.61743131  0.46707254  0.60090936     1.78800
O347        O  0.72521753  0.52003891  0.54757898    -0.93100
O348        O  0.57989364  0.45403737  0.63104939    -0.40900
O349        O  0.64712610  0.49446556  0.56126271    -0.77500
O350        O  0.62428201  0.50601088  0.60574858    -0.96200
O351        O  0.66854975  0.54612557  0.62097223    -0.89500
O352        O  0.69181914  0.53451579  0.56958822    -0.92300
C353        C  0.62130521  0.42311426  0.64698179     1.01400
C354        C  0.70466007  0.46490448  0.62286008     1.14300
C355        C  0.65061805  0.49469363  0.73648051     1.05100
O356        O  0.59670084  0.49699854  0.66885083    -0.94500
O357        O  0.63424421  0.55086132  0.64357677    -0.90200
O358        O  0.64072461  0.55989329  0.58616360    -0.83400
C359        C  0.63544262  0.56325617  0.61623059     1.11800
O360        O  0.73797557  0.55173117  0.66161236    -0.96500
Zr361      Zr  0.70585313  0.54790440  0.62446234     1.88900
O362        O  0.68508898  0.57249868  0.54708205    -0.73100
O363        O  0.64085153  0.54083905  0.70867660    -0.52400
O364        O  0.71533946  0.57613740  0.66727666    -0.97100
O365        O  0.74399590  0.56228200  0.59508131    -0.54300
O366        O  0.71099757  0.58345647  0.59054441    -0.73600
C367        C  0.70251927  0.58816585  0.56280615     0.98700
O368        O  0.62347381  0.53385615  0.52932924    -0.62500
O369        O  0.68118721  0.46683022  0.52825446    -0.57300
O370        O  0.65766580  0.52369514  0.50689552    -0.93900
O371        O  0.67428000  0.50010617  0.50930348    -0.92400
O372        O  0.60815399  0.43949625  0.55707565    -0.92700
O373        O  0.58879848  0.46541586  0.55849895    -0.91500
C374        C  0.66484326  0.51095367  0.49295148     1.17500
H375        H  0.65298090  0.45258835  0.60234819     0.33500
H376        H  0.60975401  0.50660293  0.60230503     0.44300
H377        H  0.70253994  0.54446045  0.55116649     0.37900
H378        H  0.68397591  0.52488624  0.68914311     0.34400
H379        H  0.56881904  0.43909616  0.62132096     0.26100
H380        H  0.65359061  0.55698000  0.70254550     0.32100
H381        H  0.72932794  0.59046960  0.65751010     0.38000
H382        H  0.62241491  0.43770051  0.55527407     0.32400
H383        H  0.69719996  0.46848378  0.52659248     0.31300
H384        H  0.72541274  0.51577768  0.52384589     0.33000
H385        H  0.74147205  0.56538562  0.57068078     0.32000
H386        H  0.59853936  0.47643523  0.53928211     0.36000
H387        H  0.63197872  0.54476423  0.50931221     0.28700
H388        H  0.67538213  0.45644814  0.72260406     0.32900
H389        H  0.73398823  0.53547679  0.66873794     0.35800
H390        H  0.67132235  0.45139857  0.54057006     0.28400
H391        H  0.61524732  0.51826511  0.52006394     0.41300
H392        H  0.59294767  0.50777330  0.68032391     0.31300
H393        H  0.58238077  0.44944862  0.65475856     0.38900
H394        H  0.74668199  0.54870540  0.59545843     0.30800
H395        H  0.62596758  0.54165964  0.70785762     0.30900
H396        H  0.69786781  0.48149783  0.71843258     0.31100
Zr397      Zr  0.33027294  0.81285725  0.17749209     2.17500
O398        O  0.30848928  0.78093482  0.14041443    -0.51200
O399        O  0.36244408  0.80271304  0.17955968    -0.74400
O400        O  0.33585559  0.82470769  0.11594872    -0.81200
O401        O  0.29688453  0.76953777  0.25311772    -0.83000
O402        O  0.34258064  0.86195298  0.11092589    -0.78600
O403        O  0.30737976  0.77246406  0.19700338    -0.90200
O404        O  0.38948440  0.82551962  0.21729161    -0.76200
O405        O  0.36469299  0.85027327  0.17858960    -0.85700
O406        O  0.34458929  0.81485935  0.23442927    -0.85400
O407        O  0.31470912  0.83935220  0.16575299    -0.72100
O408        O  0.29819882  0.80745562  0.21465707    -0.84300
Zr409      Zr  0.33379544  0.87512802  0.26142311     2.26400
Zr410      Zr  0.34974642  0.87673040  0.16730201     2.06300
Zr411      Zr  0.31311588  0.80942861  0.27121408     2.10000
Zr412      Zr  0.37825227  0.85286494  0.23612453     1.78800
O413        O  0.27414732  0.78472022  0.29773766    -0.93100
O414        O  0.41624300  0.87619200  0.20593205    -0.40900
O415        O  0.34722831  0.84741108  0.27437243    -0.77500
O416        O  0.36547877  0.88100045  0.22353700    -0.96200
O417        O  0.31886670  0.87272845  0.20492663    -0.89500
O418        O  0.29964291  0.83730982  0.26102250    -0.92300
C419        C  0.38111365  0.80856933  0.19771392     1.01400
C420        C  0.29738714  0.76068635  0.22498795     1.14300
C421        C  0.33831286  0.84294679  0.09816810     1.05100
O422        O  0.39198751  0.89515023  0.15414510    -0.94500
O423        O  0.35518549  0.91425234  0.18025760    -0.90200
O424        O  0.34797231  0.91501718  0.23674664    -0.83400
C425        C  0.35419256  0.92466807  0.20614546     1.11800
O426        O  0.25644863  0.81004218  0.16459716    -0.96500
Zr427      Zr  0.28460580  0.83550442  0.20508994     1.88900
O428        O  0.29972817  0.87983065  0.27280017    -0.73100
O429        O  0.35058935  0.90426775  0.12137142    -0.52400
O430        O  0.27279001  0.85517622  0.16037882    -0.97100
O431        O  0.24839662  0.80439572  0.23275267    -0.54300
O432        O  0.27086869  0.85832686  0.23605091    -0.73600
C433        C  0.27919652  0.87273066  0.25988178     0.98700
O434        O  0.36173631  0.90728018  0.29392508    -0.62500
O435        O  0.33115278  0.79215895  0.30988514    -0.57300
O436        O  0.32845228  0.86219838  0.32236771    -0.93900
O437        O  0.31472431  0.82297702  0.32764288    -0.92400
O438        O  0.38819037  0.84066213  0.29119543    -0.92700
O439        O  0.40880066  0.88445853  0.26694973    -0.91500
C440        C  0.32126283  0.84266085  0.34019560     1.17500
H441        H  0.34809893  0.80253213  0.24085179     0.33500
H442        H  0.37873591  0.89652592  0.22503801     0.44300
H443        H  0.28806011  0.83493850  0.27836532     0.37900
H444        H  0.30715650  0.83687714  0.14377099     0.34400
H445        H  0.42702957  0.87134167  0.21749120     0.26100
H446        H  0.36244671  0.90588019  0.10412238     0.32100
H447        H  0.28626468  0.87129148  0.15771103     0.38000
H448        H  0.40463344  0.84368163  0.28805254     0.32400
H449        H  0.33011993  0.77881859  0.29826215     0.31300
H450        H  0.27709988  0.77659892  0.31790649     0.33000
H451        H  0.24751725  0.81000372  0.25524191     0.32000
H452        H  0.40002547  0.88752513  0.28453528     0.36000
H453        H  0.35394695  0.90570498  0.31628299     0.28700
H454        H  0.32043756  0.78090407  0.12491915     0.32900
H455        H  0.26369087  0.80097311  0.15650301     0.35800
H456        H  0.34822996  0.80373811  0.30913576     0.28400
H457        H  0.37472178  0.90379432  0.29918501     0.41300
H458        H  0.39289173  0.89161892  0.13017850     0.31300
H459        H  0.41387665  0.86987615  0.18307639     0.38900
H460        H  0.25187303  0.79149437  0.23838009     0.30800
H461        H  0.33511159  0.89632238  0.11000903     0.30900
H462        H  0.29874437  0.78556239  0.12552843     0.31100
Zr463      Zr  0.32437920  0.81062450  0.67929187     2.17500
O464        O  0.30038038  0.77832785  0.64380897    -0.51200
O465        O  0.35543746  0.79896399  0.67951782    -0.74400
O466        O  0.32889179  0.82073932  0.61733966    -0.81200
O467        O  0.29919793  0.77033777  0.75942744    -0.83000
O468        O  0.34000986  0.85913999  0.61015123    -0.78600
O469        O  0.30071299  0.77083883  0.70155547    -0.90200
O470        O  0.38223481  0.81781193  0.72025663    -0.76200
O471        O  0.36097784  0.84622819  0.67783917    -0.85700
O472        O  0.33967414  0.81295835  0.73556785    -0.85400
O473        O  0.31211928  0.83960605  0.66645653    -0.72100
O474        O  0.29384723  0.80817800  0.71714374    -0.84300
Zr475      Zr  0.33606286  0.87721356  0.75994911     2.26400
Zr476      Zr  0.34940626  0.87518878  0.66582177     2.06300
Zr477      Zr  0.30994755  0.81046554  0.77304773     2.10000
Zr478      Zr  0.37570001  0.84921627  0.73463558     1.78800
O479        O  0.26828597  0.79026959  0.79036687    -0.93100
O480        O  0.41048101  0.86779949  0.69638750    -0.40900
O481        O  0.34619354  0.84698492  0.77312786    -0.77500
O482        O  0.36617718  0.87981241  0.72149197    -0.96200
O483        O  0.32042845  0.87449950  0.70403068    -0.89500
O484        O  0.29993741  0.84080571  0.76236291    -0.92300
C485        C  0.37299024  0.80206748  0.69878572     1.01400
C486        C  0.29624211  0.76011787  0.73133141     1.14300
C487        C  0.33329533  0.83920741  0.59844009     1.05100
O488        O  0.39152714  0.89151596  0.65328922    -0.94500
O489        O  0.35317343  0.91249530  0.67548759    -0.90200
O490        O  0.34902968  0.91615520  0.73189029    -0.83400
C491        C  0.35326260  0.92421198  0.70031359     1.11800
O492        O  0.25581926  0.81766828  0.66347858    -0.96500
Zr493      Zr  0.28406339  0.83906291  0.70696293     1.88900
O494        O  0.30455803  0.88583980  0.77240825    -0.73100
O495        O  0.35691757  0.90483174  0.61925399    -0.52400
O496        O  0.27395475  0.86297882  0.66750586    -0.97100
O497        O  0.24659643  0.80915503  0.73304954    -0.54300
O498        O  0.27271293  0.86224505  0.74159092    -0.73600
C499        C  0.28305216  0.87817507  0.76299652     0.98700
O500        O  0.36698695  0.90628645  0.79345230    -0.62500
O501        O  0.31802249  0.79031223  0.82160388    -0.57300
O502        O  0.33158488  0.86656691  0.82138373    -0.93900
O503        O  0.31688648  0.82723178  0.82825255    -0.92400
O504        O  0.38912846  0.83708286  0.78665116    -0.92700
O505        O  0.40767642  0.88041536  0.76422488    -0.91500
C506        C  0.32450155  0.84736784  0.84003371     1.17500
H507        H  0.34203447  0.79992061  0.74243114     0.33500
H508        H  0.38023229  0.89490896  0.72197772     0.44300
H509        H  0.28924881  0.83979530  0.78018001     0.37900
H510        H  0.30428317  0.83735337  0.64474947     0.34400
H511        H  0.42382049  0.86935106  0.71080909     0.26100
H512        H  0.36708947  0.90328300  0.60213145     0.32100
H513        H  0.28658522  0.86934338  0.64952952     0.38000
H514        H  0.37486406  0.82898626  0.80182883     0.32400
H515        H  0.30363118  0.77483632  0.82494708     0.31300
H516        H  0.26056258  0.77769332  0.77444450     0.33000
H517        H  0.23486552  0.81387654  0.72504602     0.32000
H518        H  0.40003111  0.88802544  0.77576430     0.36000
H519        H  0.38044827  0.91547201  0.77714514     0.28700
H520        H  0.31152799  0.77728418  0.62788065     0.32900
H521        H  0.25462247  0.80205406  0.66532602     0.35800
H522        H  0.33035585  0.78706845  0.81308387     0.28400
H523        H  0.36103216  0.91699841  0.79885438     0.41300
H524        H  0.39217153  0.88498744  0.63150647     0.31300
H525        H  0.40825809  0.85587734  0.68043427     0.38900
H526        H  0.24818617  0.81198381  0.75770264     0.30800
H527        H  0.34155295  0.89980105  0.60793304     0.30900
H528        H  0.29077509  0.78330127  0.62922041     0.31100
Zr529      Zr  0.20071118  0.53066455  0.19359813     2.17500
O530        O  0.23100612  0.53463349  0.15305717    -0.51200
O531        O  0.21689907  0.57326903  0.18805658    -0.74400
O532        O  0.18782766  0.52757403  0.13429186    -0.81200
O533        O  0.24342770  0.54132505  0.26527882    -0.83000
O534        O  0.14770885  0.50660425  0.13468345    -0.78600
O535        O  0.24061568  0.54062143  0.20764424    -0.90200
O536        O  0.19575277  0.58274757  0.22337839    -0.76200
O537        O  0.16597342  0.53422463  0.19679029    -0.85700
O538        O  0.20119818  0.54504987  0.24800940    -0.85400
O539        O  0.16909458  0.49123253  0.18945025    -0.72100
O540        O  0.20212862  0.50252678  0.23499279    -0.84300
Zr541      Zr  0.13496195  0.48171533  0.29063050     2.26400
Zr542      Zr  0.13440560  0.49526594  0.19392191     2.06300
Zr543      Zr  0.20288203  0.51763119  0.28901803     2.10000
Zr544      Zr  0.16563832  0.54731706  0.25196392     1.78800
O545        O  0.22082198  0.49462681  0.31164332    -0.93100
O546        O  0.14287654  0.56166430  0.21813243    -0.40900
O547        O  0.16745071  0.52042461  0.29426506    -0.77500
O548        O  0.13273283  0.50891429  0.24843732    -0.96200
O549        O  0.13493856  0.46768505  0.23636015    -0.89500
O550        O  0.17034157  0.47884287  0.28749994    -0.92300
C551        C  0.21277665  0.58805306  0.20221585     1.01400
C552        C  0.25272561  0.54610971  0.23489643     1.14300
C553        C  0.16787977  0.51800242  0.11917562     1.05100
O554        O  0.11432907  0.51757849  0.17847352    -0.94500
O555        O  0.09497343  0.46715348  0.21261177    -0.90200
O556        O  0.09515115  0.45602715  0.26909700    -0.83400
C557        C  0.08501097  0.45443231  0.23997721     1.11800
O558        O  0.19159367  0.45609110  0.19155724    -0.96500
Zr559      Zr  0.16910667  0.46364398  0.23362456     1.88900
O560        O  0.12747760  0.44345919  0.31173073    -0.73100
O561        O  0.10982628  0.46505904  0.15577199    -0.52400
O562        O  0.14360969  0.43255081  0.19744930    -0.97100
O563        O  0.19665326  0.45312146  0.26238322    -0.54300
O564        O  0.14132380  0.42986419  0.27152865    -0.73600
C565        C  0.12921011  0.42691823  0.29914056     0.98700
O566        O  0.10349673  0.48166893  0.32435404    -0.62500
O567        O  0.22770564  0.54760629  0.32717128    -0.57300
O568        O  0.14825152  0.49102703  0.34950074    -0.93900
O569        O  0.18855077  0.51233031  0.34749775    -0.92400
O570        O  0.18403541  0.57477551  0.29610433    -0.92700
O571        O  0.13894836  0.55177690  0.29011747    -0.91500
C572        C  0.16852427  0.50257804  0.36362334     1.17500
H573        H  0.21505577  0.55986075  0.25093152     0.33500
H574        H  0.11801427  0.50910770  0.25114789     0.44300
H575        H  0.17139536  0.46918167  0.30645007     0.37900
H576        H  0.16985527  0.48578070  0.16744310     0.34400
H577        H  0.14831749  0.57753102  0.22559959     0.26100
H578        H  0.10457082  0.47277426  0.13777045     0.32100
H579        H  0.14140851  0.44069267  0.17664129     0.38000
H580        H  0.20037156  0.57720103  0.29751972     0.32400
H581        H  0.24203644  0.54599396  0.33068644     0.31300
H582        H  0.22618647  0.50017539  0.33473005     0.33000
H583        H  0.19267880  0.43768709  0.25454372     0.32000
H584        H  0.13069806  0.53668148  0.30393075     0.36000
H585        H  0.11152097  0.49472065  0.33940705     0.28700
H586        H  0.23049815  0.54381484  0.13223208     0.32900
H587        H  0.18603596  0.43912338  0.19427514     0.35800
H588        H  0.23325906  0.56260812  0.31344942     0.28400
H589        H  0.09508279  0.48698448  0.30781641     0.41300
H590        H  0.10416727  0.50966009  0.15913154     0.31300
H591        H  0.14929259  0.56435430  0.19441934     0.38900
H592        H  0.19157549  0.44979896  0.28682112     0.30800
H593        H  0.12080448  0.46131546  0.14385162     0.30900
H594        H  0.22550139  0.51869902  0.14593344     0.31100
Zr595      Zr  0.20749789  0.53033742  0.70010170     2.17500
O596        O  0.24200702  0.54278067  0.66254767    -0.51200
O597        O  0.22082583  0.57277534  0.69551206    -0.74400
O598        O  0.19785954  0.52537153  0.63874143    -0.81200
O599        O  0.24508224  0.53390931  0.77991810    -0.83000
O600        O  0.15830184  0.50139586  0.63485320    -0.78600
O601        O  0.24576523  0.53945632  0.72186892    -0.90200
O602        O  0.19319931  0.57914878  0.72026307    -0.76200
O603        O  0.17029714  0.52893883  0.69627915    -0.85700
O604        O  0.20269610  0.54415677  0.75238134    -0.85400
O605        O  0.18023200  0.48917549  0.69626600    -0.72100
O606        O  0.20768811  0.50344902  0.74551235    -0.84300
Zr607      Zr  0.13598757  0.47761921  0.79028171     2.26400
Zr608      Zr  0.14308003  0.48823777  0.69278873     2.06300
Zr609      Zr  0.20336338  0.51813286  0.79739878     2.10000
Zr610      Zr  0.16519634  0.54261440  0.74870877     1.78800
O611        O  0.21799468  0.49761778  0.83616231    -0.93100
O612        O  0.14067683  0.55355336  0.71259724    -0.40900
O613        O  0.16589173  0.51740048  0.79466186    -0.77500
O614        O  0.13590890  0.50303869  0.74305855    -0.96200
O615        O  0.14105531  0.46201457  0.73979813    -0.89500
O616        O  0.17319487  0.47815539  0.79545303    -0.92300
C617        C  0.21307870  0.58631378  0.70492735     1.01400
C618        C  0.25584779  0.53996098  0.75046471     1.14300
C619        C  0.17891769  0.51448713  0.62134904     1.05100
O620        O  0.11787483  0.49737320  0.65546010    -0.94500
O621        O  0.10212486  0.46583979  0.70708308    -0.90200
O622        O  0.09624672  0.46027269  0.76499187    -0.83400
C623        C  0.08886010  0.45837176  0.73392768     1.11800
O624        O  0.20537846  0.45637091  0.71107348    -0.96500
Zr625      Zr  0.17803246  0.46293107  0.74470209     1.88900
O626        O  0.12877427  0.43950222  0.81372709    -0.73100
O627        O  0.13240756  0.45252802  0.66495286    -0.52400
O628        O  0.15752160  0.43157186  0.70654424    -0.97100
O629        O  0.20561312  0.45581706  0.77986592    -0.54300
O630        O  0.15191379  0.42919730  0.78441338    -0.73600
C631        C  0.13596341  0.42510988  0.80739024     0.98700
O632        O  0.10075559  0.46913781  0.82363029    -0.62500
O633        O  0.22629954  0.55465803  0.82462874    -0.57300
O634        O  0.14524068  0.49242746  0.84763858    -0.93900
O635        O  0.18503077  0.51560574  0.85212644    -0.92400
O636        O  0.18230654  0.57074166  0.79229274    -0.92700
O637        O  0.13465498  0.54370170  0.78287493    -0.91500
C638        C  0.16378935  0.50556267  0.86444026     1.17500
H639        H  0.21518983  0.55942397  0.75626126     0.33500
H640        H  0.12089345  0.50279224  0.74183721     0.44300
H641        H  0.17362923  0.46932536  0.81593694     0.37900
H642        H  0.18344659  0.48391718  0.67560943     0.34400
H643        H  0.14820062  0.57072404  0.71303917     0.26100
H644        H  0.12048674  0.43983729  0.68058738     0.32100
H645        H  0.14205953  0.42096958  0.71808361     0.38000
H646        H  0.18097568  0.58445741  0.78319360     0.32400
H647        H  0.23600277  0.55140329  0.84162422     0.31300
H648        H  0.21900330  0.50397682  0.85872255     0.33000
H649        H  0.19822005  0.45097521  0.80310478     0.32000
H650        H  0.13430046  0.53528082  0.80505353     0.36000
H651        H  0.10065479  0.45951262  0.84429166     0.28700
H652        H  0.24173833  0.55426850  0.64505764     0.32900
H653        H  0.20156015  0.44007839  0.71750484     0.35800
H654        H  0.23783143  0.56570862  0.80696581     0.28400
H655        H  0.10380098  0.48416717  0.83210313     0.41300
H656        H  0.12292659  0.51388001  0.65895982     0.31300
H657        H  0.14373721  0.55099520  0.68898357     0.38900
H658        H  0.21944205  0.47148530  0.78208880     0.30800
H659        H  0.12324149  0.45317980  0.64479596     0.30900
H660        H  0.23882271  0.52904806  0.64996219     0.31100
Zr661      Zr  0.48422121  0.68199734  0.18405684     2.17500
O662        O  0.46665163  0.69899374  0.14388324    -0.51200
O663        O  0.44331389  0.64964710  0.18336366    -0.74400
O664        O  0.49257382  0.67963966  0.12365636    -0.81200
O665        O  0.47198684  0.70964699  0.25848308    -0.83000
O666        O  0.52014623  0.66789854  0.12234301    -0.78600
O667        O  0.47240509  0.70965573  0.20034665    -0.90200
O668        O  0.43943356  0.61858862  0.21729878    -0.76200
O669        O  0.49050146  0.64931708  0.18620224    -0.85700
O670        O  0.47057690  0.66251307  0.23962388    -0.85400
O671        O  0.52654005  0.69959436  0.17620036    -0.72100
O672        O  0.50782381  0.70998536  0.22436376    -0.84300
Zr673      Zr  0.54227451  0.67252563  0.27534474     2.26400
Zr674      Zr  0.53248790  0.66652657  0.17992724     2.06300
Zr675      Zr  0.49396772  0.69013419  0.27933413     2.10000
Zr676      Zr  0.47763196  0.63008064  0.24194696     1.78800
O677        O  0.50566326  0.72542396  0.30873409    -0.93100
O678        O  0.47299237  0.59837207  0.20827904    -0.40900
O679        O  0.50029898  0.65706507  0.28347421    -0.77500
O680        O  0.51927772  0.64512196  0.23429372    -0.96200
O681        O  0.55622848  0.69317414  0.22091737    -0.89500
O682        O  0.53581818  0.70534090  0.27379563    -0.92300
C683        C  0.43088567  0.62893309  0.19774570     1.01400
C684        C  0.46768542  0.71567585  0.22838438     1.14300
C685        C  0.50578495  0.67361539  0.10774485     1.05100
O686        O  0.52166322  0.62846365  0.15998693    -0.94500
O687        O  0.56225874  0.65671769  0.19480855    -0.90200
O688        O  0.56712524  0.65746721  0.25260884    -0.83400
C689        C  0.57155331  0.65378797  0.22229627     1.11800
O690        O  0.55098358  0.75711425  0.18090124    -0.96500
Zr691      Zr  0.54978470  0.72570320  0.21922018     1.88900
O692        O  0.57955990  0.70620056  0.28829092    -0.73100
O693        O  0.56734959  0.68871021  0.14250096    -0.52400
O694        O  0.58243740  0.74159555  0.17749010    -0.97100
O695        O  0.55105232  0.75754859  0.24932878    -0.54300
O696        O  0.58532646  0.73779387  0.25359800    -0.73600
C697        C  0.59179794  0.72772414  0.27741529     0.98700
O698        O  0.55152023  0.64636136  0.31131696    -0.62500
O699        O  0.45613802  0.66807419  0.31037746    -0.57300
O700        O  0.53120861  0.67129917  0.33541928    -0.93900
O701        O  0.50415275  0.68388992  0.33686442    -0.92400
O702        O  0.44628754  0.60900369  0.28520289    -0.92700
O703        O  0.48092837  0.60202457  0.28255610    -0.91500
C704        C  0.51746052  0.67665990  0.35132994     1.17500
H705        H  0.45424136  0.65801308  0.24437565     0.33500
H706        H  0.52244241  0.63219622  0.23560611     0.44300
H707        H  0.54375430  0.71513023  0.29229798     0.37900
H708        H  0.53150720  0.70793283  0.15392391     0.34400
H709        H  0.46020920  0.58410984  0.22037297     0.26100
H710        H  0.56693795  0.67739313  0.12672380     0.32100
H711        H  0.58799875  0.72999310  0.17819290     0.38000
H712        H  0.44046304  0.61993685  0.28988953     0.32400
H713        H  0.45824261  0.65723026  0.32704139     0.31300
H714        H  0.49208123  0.72152870  0.32423902     0.33000
H715        H  0.55385026  0.75449843  0.27362983     0.32000
H716        H  0.49431872  0.60043673  0.27386878     0.36000
H717        H  0.55843497  0.65431802  0.33250080     0.28700
H718        H  0.45647417  0.68644878  0.12894306     0.32900
H719        H  0.56607444  0.77122290  0.18557219     0.35800
H720        H  0.45520203  0.67947935  0.32459081     0.28400
H721        H  0.53593673  0.63296062  0.31851763     0.41300
H722        H  0.53299176  0.63179516  0.14088664     0.31300
H723        H  0.46574998  0.60033334  0.18669181     0.38900
H724        H  0.53455354  0.75473760  0.24915941     0.30800
H725        H  0.56410236  0.69968445  0.12788215     0.30900
H726        H  0.47982624  0.71073015  0.12880346     0.31100
Zr727      Zr  0.48246969  0.67946077  0.68311261     2.17500
O728        O  0.47606689  0.70472664  0.64072356    -0.51200
O729        O  0.44195555  0.64624215  0.68127099    -0.74400
O730        O  0.48671359  0.67178431  0.62393084    -0.81200
O731        O  0.47249288  0.71155206  0.75321111    -0.83000
O732        O  0.51668230  0.66322627  0.62387090    -0.78600
O733        O  0.46190069  0.70004006  0.69909643    -0.90200
O734        O  0.43943661  0.61874555  0.72171909    -0.76200
O735        O  0.48789303  0.64618096  0.69059528    -0.85700
O736        O  0.47105411  0.66446769  0.74104199    -0.85400
O737        O  0.52438261  0.69465003  0.67297582    -0.72100
O738        O  0.50826037  0.71032788  0.71838081    -0.84300
Zr739      Zr  0.54366029  0.67458626  0.77382989     2.26400
Zr740      Zr  0.52931258  0.66085597  0.68146265     2.06300
Zr741      Zr  0.49684495  0.69483037  0.77614771     2.10000
Zr742      Zr  0.47701520  0.63149539  0.74867946     1.78800
O743        O  0.51427813  0.73411163  0.79558231    -0.93100
O744        O  0.46733886  0.59470483  0.72493048    -0.40900
O745        O  0.50240490  0.66137760  0.78430615    -0.77500
O746        O  0.51803552  0.64361291  0.73878778    -0.96200
O747        O  0.55548825  0.69108645  0.71658347    -0.89500
O748        O  0.53821997  0.70813307  0.76782652    -0.92300
C749        C  0.43031601  0.62634258  0.69841375     1.01400
C750        C  0.46154559  0.71074435  0.72512153     1.14300
C751        C  0.50124909  0.66720389  0.60866155     1.05100
O752        O  0.51696891  0.61951803  0.68097614    -0.94500
O753        O  0.56906870  0.66969636  0.69526727    -0.90200
O754        O  0.56550495  0.65628019  0.75022183    -0.83400
C755        C  0.57401667  0.65901910  0.71960919     1.11800
O756        O  0.55171922  0.75295273  0.66637532    -0.96500
Zr757      Zr  0.54983319  0.72407022  0.71050583     1.88900
O758        O  0.58201551  0.70823161  0.78094371    -0.73100
O759        O  0.55028049  0.65919348  0.63127852    -0.52400
O760        O  0.58069324  0.73646423  0.66653888    -0.97100
O761        O  0.55332444  0.75897287  0.73382667    -0.54300
O762        O  0.58632433  0.73793923  0.74321004    -0.73600
C763        C  0.59391171  0.72908606  0.76729236     0.98700
O764        O  0.55373415  0.65364874  0.81894403    -0.62500
O765        O  0.46267999  0.68078416  0.81483664    -0.57300
O766        O  0.53406729  0.67589049  0.83372668    -0.93900
O767        O  0.50664715  0.68811658  0.83456882    -0.92400
O768        O  0.44998414  0.62232835  0.79718941    -0.92700
O769        O  0.47734994  0.60275473  0.79111668    -0.91500
C770        C  0.52009321  0.68106450  0.84946492     1.17500
H771        H  0.45479092  0.66034190  0.74562782     0.33500
H772        H  0.52068979  0.63044746  0.74281951     0.44300
H773        H  0.54730051  0.71919152  0.78441605     0.37900
H774        H  0.52877219  0.70156755  0.64981470     0.34400
H775        H  0.46565380  0.59737507  0.70005753     0.26100
H776        H  0.56559688  0.67392493  0.62989794     0.32100
H777        H  0.58360171  0.72308755  0.66551269     0.38000
H778        H  0.43693805  0.62476145  0.78807582     0.32400
H779        H  0.46255698  0.69504906  0.82105023     0.31300
H780        H  0.52135905  0.73335745  0.81793199     0.33000
H781        H  0.56931689  0.77158633  0.72640570     0.32000
H782        H  0.49415472  0.60658019  0.79233734     0.36000
H783        H  0.54814295  0.63788309  0.81095256     0.28700
H784        H  0.46432175  0.69430003  0.62461558     0.32900
H785        H  0.53523137  0.75009030  0.66478010     0.35800
H786        H  0.44864572  0.67286275  0.80034267     0.28400
H787        H  0.57124798  0.66118987  0.81804473     0.41300
H788        H  0.50549528  0.61397634  0.66217190     0.31300
H789        H  0.48201647  0.59355722  0.72657803     0.38900
H790        H  0.55451290  0.75662131  0.75888007     0.30800
H791        H  0.55451777  0.64686995  0.63747842     0.30900
H792        H  0.49110384  0.71343298  0.62726208     0.31100
Zr793      Zr  0.21291549  0.01382849  0.88918530     2.17500
O794        O  0.24277296  0.03487494  0.84371544    -0.51200
O795        O  0.21891562  0.98105577  0.87738137    -0.74400
O796        O  0.25384120  0.03741977  0.91012505    -0.81200
O797        O  0.16083902  0.99792229  0.82824388    -0.83000
O798        O  0.25217290  0.03810368  0.96809505    -0.78600
O799        O  0.20104344  0.01567924  0.82967239    -0.90200
O800        O  0.19739614  0.95059876  0.91609697    -0.76200
O801        O  0.21136249  0.99756959  0.94621825    -0.85700
O802        O  0.17595196  0.97806230  0.89505323    -0.85400
O803        O  0.21496178  0.04255593  0.92595999    -0.72100
O804        O  0.18199211  0.02377389  0.87980162    -0.84300
Zr805      Zr  0.14586321  0.00183396  0.98036503     2.26400
Zr806      Zr  0.21183975  0.02544628  0.98308043     2.06300
Zr807      Zr  0.14509048  0.98786296  0.88714224     2.10000
Zr808      Zr  0.17459484  0.96223148  0.95197967     1.78800
O809        O  0.11984954  0.99812280  0.85186092    -0.93100
O810        O  0.19728810  0.95191584  0.99302020    -0.40900
O811        O  0.14338312  0.97207463  0.94469234    -0.77500
O812        O  0.17532825  0.98979147  0.99017494    -0.96200
O813        O  0.18240016  0.03725057  0.97429083    -0.89500
O814        O  0.14752790  0.01669547  0.92271392    -0.92300
C815        C  0.21159924  0.96004044  0.88995432     1.01400
C816        C  0.18146132  0.00833388  0.81343064     1.14300
C817        C  0.26352564  0.04307923  0.93960468     1.05100
O818        O  0.22740709  0.00904669  0.02744527    -0.94500
O819        O  0.19903137  0.02707591  0.04000667    -0.90200
O820        O  0.15910964  0.01235012  0.03891883    -0.83400
C821        C  0.17902798  0.02101119  0.05445853     1.11800
O822        O  0.21374279  0.08369240  0.87896518    -0.96500
Zr823      Zr  0.18399949  0.05219695  0.91657248     1.88900
O824        O  0.13001817  0.02941458  0.97488839    -0.73100
O825        O  0.23739089  0.06592605  0.99558713    -0.52400
O826        O  0.20748951  0.08715458  0.94709463    -0.97100
O827        O  0.16808238  0.06275890  0.86576679    -0.54300
O828        O  0.15325695  0.05969476  0.93689282    -0.73600
C829        C  0.13502113  0.04850416  0.95684141     0.98700
O830        O  0.12055762  0.98081091  0.03055132    -0.62500
O831        O  0.12877809  0.94963100  0.86445559    -0.57300
O832        O  0.10523929  0.97605244  0.96602469    -0.93900
O833        O  0.10377526  0.96999031  0.90940774    -0.92400
O834        O  0.14517363  0.92521199  0.93101648    -0.92700
O835        O  0.14987580  0.93378740  0.99749880    -0.91500
C836        C  0.09375180  0.96781250  0.93882188     1.17500
H837        H  0.17444916  0.96741219  0.87816549     0.33500
H838        H  0.17367812  0.98316343  0.01345375     0.44300
H839        H  0.13415607  0.01880130  0.91685308     0.37900
H840        H  0.22989305  0.05683262  0.92275422     0.34400
H841        H  0.19338485  0.93588496  0.98809940     0.26100
H842        H  0.24397401  0.06505952  0.01833188     0.32100
H843        H  0.19603021  0.09171169  0.95524405     0.38000
H844        H  0.15330968  0.91582750  0.93033165     0.32400
H845        H  0.12042036  0.93847405  0.88428867     0.31300
H846        H  0.11168682  0.98511852  0.83674518     0.33000
H847        H  0.16611102  0.07604550  0.87198464     0.32000
H848        H  0.13623455  0.93653596  0.99981521     0.36000
H849        H  0.10760205  0.98473685  0.02986812     0.28700
H850        H  0.25484452  0.02984749  0.84711617     0.32900
H851        H  0.22246448  0.07674558  0.86849783     0.35800
H852        H  0.11600433  0.94858408  0.84916823     0.28400
H853        H  0.11290010  0.96404947  0.02623889     0.41300
H854        H  0.21469606  0.99270979  0.03216419     0.31300
H855        H  0.21400582  0.96174614  0.98523975     0.38900
H856        H  0.15170311  0.04967568  0.86435072     0.30800
H857        H  0.22637688  0.07191551  0.99984778     0.30900
H858        H  0.25082540  0.05149906  0.84891301     0.31100
Zr859      Zr  0.21703255  0.01636053  0.38727545     2.17500
O860        O  0.24664050  0.04121271  0.34326348    -0.51200
O861        O  0.22337934  0.98442636  0.37159719    -0.74400
O862        O  0.25764898  0.03599595  0.40925964    -0.81200
O863        O  0.16681897  0.00582115  0.32543247    -0.83000
O864        O  0.25463784  0.03542876  0.46721269    -0.78600
O865        O  0.20673837  0.02031001  0.32803422    -0.90200
O866        O  0.19776629  0.95137122  0.40307774    -0.76200
O867        O  0.21365344  0.99674961  0.44215618    -0.85700
O868        O  0.17963900  0.98122554  0.38841903    -0.85400
O869        O  0.21937615  0.04329640  0.42792310    -0.72100
O870        O  0.18695271  0.02758761  0.37965910    -0.84300
Zr871      Zr  0.14860613  0.00082213  0.47744229     2.26400
Zr872      Zr  0.21427803  0.02269256  0.48281941     2.06300
Zr873      Zr  0.14952848  0.99213702  0.38270537     2.10000
Zr874      Zr  0.17640689  0.96196245  0.44334842     1.78800
O875        O  0.12611813  0.00210770  0.34266199    -0.93100
O876        O  0.19955518  0.95021448  0.48128666    -0.40900
O877        O  0.14590156  0.97288804  0.43820910    -0.77500
O878        O  0.17711130  0.98740324  0.48552376    -0.96200
O879        O  0.18577212  0.03566921  0.47550350    -0.89500
O880        O  0.15203534  0.01917217  0.42172797    -0.92300
C881        C  0.21396961  0.96238255  0.37963386     1.01400
C882        C  0.18765317  0.01531612  0.31165968     1.14300
C883        C  0.26659773  0.04000224  0.43932997     1.05100
O884        O  0.23025691  0.00455520  0.52364641    -0.94500
O885        O  0.19966048  0.02102427  0.53999208    -0.90200
O886        O  0.16039728  0.00960403  0.53663532    -0.83400
C887        C  0.17964852  0.01604111  0.55334848     1.11800
O888        O  0.22205662  0.08607088  0.38706017    -0.96500
Zr889      Zr  0.18912280  0.05414466  0.41988865     1.88900
O890        O  0.13350539  0.02882446  0.47525248    -0.73100
O891        O  0.23833970  0.06078729  0.50530366    -0.52400
O892        O  0.20882325  0.08804454  0.45375650    -0.97100
O893        O  0.17387949  0.06635130  0.36994566    -0.54300
O894        O  0.15883068  0.06140331  0.44243024    -0.73600
C895        C  0.13974509  0.04915727  0.46038333     0.98700
O896        O  0.12298032  0.97671825  0.52574536    -0.62500
O897        O  0.13346534  0.95366979  0.36081920    -0.57300
O898        O  0.10814421  0.97686352  0.46047941    -0.93900
O899        O  0.10816666  0.97682233  0.40254746    -0.92400
O900        O  0.14573536  0.92707125  0.41877097    -0.92700
O901        O  0.15232657  0.93031605  0.48567872    -0.91500
C902        C  0.09738035  0.97219551  0.43191984     1.17500
H903        H  0.17841927  0.97180795  0.36982219     0.33500
H904        H  0.17473290  0.97947515  0.50802868     0.44300
H905        H  0.13913254  0.02207974  0.41608988     0.37900
H906        H  0.23465262  0.05726843  0.42615668     0.34400
H907        H  0.21632083  0.96158436  0.47540609     0.26100
H908        H  0.25121227  0.05960128  0.51770877     0.32100
H909        H  0.22551390  0.09149687  0.45489278     0.38000
H910        H  0.15166653  0.91574532  0.42098476     0.32400
H911        H  0.11951516  0.94349051  0.37583677     0.31300
H912        H  0.11482983  0.98721564  0.33300039     0.33000
H913        H  0.17843472  0.08280029  0.37304072     0.32000
H914        H  0.14319631  0.93611940  0.49795438     0.36000
H915        H  0.11017404  0.98076811  0.52693328     0.28700
H916        H  0.25880001  0.03620184  0.34387566     0.32900
H917        H  0.22272267  0.07936414  0.36547049     0.35800
H918        H  0.12677713  0.95499762  0.33837075     0.28400
H919        H  0.11516242  0.96049682  0.51872320     0.41300
H920        H  0.21634118  0.98994199  0.53275154     0.31300
H921        H  0.19702694  0.95390136  0.50444933     0.38900
H922        H  0.15643718  0.05773853  0.37327340     0.30800
H923        H  0.24630649  0.07159130  0.48497847     0.30900
H924        H  0.25460263  0.05704741  0.35175933     0.31100
Zr925      Zr  0.01012843  0.21436667  0.98190344     2.17500
O926        O  0.03169328  0.24194587  0.02495725    -0.51200
O927        O  0.97865398  0.22355921  0.99206280    -0.74400
O928        O  0.03417480  0.25511985  0.95742290    -0.81200
O929        O  0.98837989  0.16114847  0.04622915    -0.83000
O930        O  0.04412614  0.25439697  0.90212511    -0.78600
O931        O  0.00805190  0.20088052  0.04227180    -0.90200
O932        O  0.94837518  0.20367514  0.95660095    -0.76200
O933        O  0.99732163  0.21522320  0.92472992    -0.85700
O934        O  0.97254483  0.17957085  0.97921877    -0.85400
O935        O  0.04045101  0.21531776  0.94580643    -0.72100
O936        O  0.01654170  0.18162080  0.99409033    -0.84300
Zr937      Zr  0.99733383  0.14863956  0.89713467     2.26400
Zr938      Zr  0.02650603  0.21440111  0.88851538     2.06300
Zr939      Zr  0.97913358  0.14687455  0.98941109     2.10000
Zr940      Zr  0.95995075  0.18095447  0.92217064     1.78800
O941        O  0.98516193  0.12072531  0.03033622    -0.93100
O942        O  0.95572963  0.20849851  0.88165967    -0.40900
O943        O  0.96638770  0.14787861  0.93200683    -0.77500
O944        O  0.98865446  0.18015784  0.88441378    -0.96200
O945        O  0.03477551  0.18293772  0.90047802    -0.89500
O946        O  0.00943924  0.14772571  0.95471584    -0.92300
C947        C  0.95802107  0.21785687  0.98034996     1.01400
C948        C  0.99904367  0.18095697  0.05953092     1.14300
C949        C  0.04442124  0.26513758  0.92826684     1.05100
O950        O  0.01717868  0.23741087  0.84602450    -0.94500
O951        O  0.02481789  0.20208471  0.83107519    -0.90200
O952        O  0.00627788  0.16248754  0.83643167    -0.83400
C953        C  0.01589505  0.18212977  0.81845506     1.11800
O954        O  0.07607061  0.21071260  0.99492636    -0.96500
Zr955      Zr  0.04654898  0.18252955  0.95855061     1.88900
O956        O  0.02494325  0.13244445  0.90202223    -0.73100
O957        O  0.06818617  0.23328050  0.87136606    -0.52400
O958        O  0.08510780  0.20338793  0.92947563    -0.97100
O959        O  0.05354473  0.16438939  0.01066750    -0.54300
O960        O  0.05406027  0.15272441  0.93918252    -0.73600
C961        C  0.04352826  0.13615031  0.91927732     0.98700
O962        O  0.97698336  0.11830704  0.85715223    -0.62500
O963        O  0.93880948  0.13190764  0.01086939    -0.57300
O964        O  0.96586151  0.10968795  0.91360386    -0.93900
O965        O  0.95995076  0.10661906  0.97115934    -0.92400
O966        O  0.92049935  0.15349177  0.94520979    -0.92700
O967        O  0.93209603  0.16226192  0.87682766    -0.91500
C968        C  0.95694149  0.09765155  0.94195106     1.17500
H969        H  0.96128631  0.17856736  0.99609944     0.33500
H970        H  0.98267938  0.17956465  0.86151296     0.44300
H971        H  0.01047761  0.13385386  0.96125629     0.37900
H972        H  0.05528934  0.22945053  0.94822905     0.34400
H973        H  0.96472164  0.22384271  0.89153157     0.26100
H974        H  0.07043133  0.22075762  0.86249625     0.32100
H975        H  0.09472588  0.19722861  0.94141507     0.38000
H976        H  0.91795149  0.13790394  0.94025971     0.32400
H977        H  0.92874872  0.12327587  0.99191701     0.31300
H978        H  0.96931636  0.11011185  0.04081571     0.33000
H979        H  0.04392970  0.14738997  0.00831475     0.32000
H980        H  0.93015703  0.14637350  0.87715631     0.36000
H981        H  0.96680555  0.12291020  0.84335980     0.28700
H982        H  0.02643977  0.25379511  0.02268676     0.32900
H983        H  0.06723482  0.21653953  0.00786682     0.35800
H984        H  0.93649838  0.11959511  0.02885265     0.28400
H985        H  0.98916953  0.11945912  0.84092686     0.41300
H986        H  0.00799496  0.24292351  0.85882320     0.31300
H987        H  0.96519225  0.20973346  0.86118532     0.38900
H988        H  0.04538831  0.16746109  0.02919750     0.30800
H989        H  0.06954862  0.24355314  0.85079340     0.30900
H990        H  0.04849798  0.25027612  0.01714044     0.31100
Zr991      Zr  0.01797483  0.21603774  0.47876990     2.17500
O992        O  0.04713787  0.24388466  0.51591340    -0.51200
O993        O  0.98898464  0.22813153  0.48992720    -0.74400
O994        O  0.03792519  0.25575838  0.44944687    -0.81200
O995        O  0.99753973  0.16547758  0.54793034    -0.83000
O996        O  0.03991083  0.25124803  0.39268332    -0.78600
O997        O  0.01444316  0.20511463  0.54043690    -0.90200
O998        O  0.95619116  0.20549907  0.46000833    -0.76200
O999        O  0.00145808  0.21360884  0.42334545    -0.85700
O1000       O  0.98034879  0.18104223  0.48185595    -0.85400
O1001       O  0.04605582  0.21539741  0.43998745    -0.72100
O1002       O  0.02491627  0.18368227  0.49220239    -0.84300
Zr1003     Zr  0.99987883  0.14546970  0.39975236     2.26400
Zr1004     Zr  0.02847360  0.21115211  0.38487366     2.06300
Zr1005     Zr  0.98715080  0.14861059  0.49303482     2.10000
Zr1006     Zr  0.96405777  0.17922675  0.42689188     1.78800
O1007       O  0.99767610  0.12395174  0.53015213    -0.93100
O1008       O  0.95560503  0.20245137  0.38364390    -0.40900
O1009       O  0.97100210  0.14652196  0.43721949    -0.77500
O1010       O  0.99053432  0.17660077  0.38688728    -0.96200
O1011       O  0.03732184  0.18020154  0.39718120    -0.89500
O1012       O  0.01546390  0.14777341  0.45572366    -0.92300
C1013       C  0.96769202  0.22169066  0.48068410     1.01400
C1014       C  0.00701469  0.18589610  0.55926242     1.14300
C1015       C  0.04296686  0.26384182  0.41781793     1.05100
O1016       O  0.02458624  0.23317378  0.33496946    -0.94500
O1017       O  0.02126495  0.19492540  0.32938611    -0.90200
O1018       O  0.00527547  0.15557221  0.33765977    -0.83400
C1019       C  0.01264642  0.17452577  0.31830270     1.11800
O1020       O  0.08419824  0.21158130  0.48695818    -0.96500
Zr1021     Zr  0.05265801  0.18301880  0.45347136     1.88900
O1022       O  0.02708111  0.12888726  0.40503996    -0.73100
O1023       O  0.07054436  0.22842704  0.37112998    -0.52400
O1024       O  0.08865880  0.20407020  0.41812552    -0.97100
O1025       O  0.06292003  0.16472794  0.50222439    -0.54300
O1026       O  0.05997517  0.15367128  0.43291190    -0.73600
C1027       C  0.04763755  0.13494763  0.41789969     0.98700
O1028       O  0.98232165  0.11798713  0.35521465    -0.62500
O1029       O  0.94947957  0.13584003  0.52272588    -0.57300
O1030       O  0.96858656  0.10743977  0.42212555    -0.93900
O1031       O  0.96264568  0.10770468  0.47908790    -0.92400
O1032       O  0.92707550  0.15235166  0.45732359    -0.92700
O1033       O  0.93308648  0.15645735  0.38743155    -0.91500
C1034       C  0.95840329  0.09724571  0.45104899     1.17500
H1035       H  0.97020168  0.18113158  0.49966331     0.33500
H1036       H  0.98310741  0.17480401  0.36487339     0.44300
H1037       H  0.01696387  0.13427280  0.46314191     0.37900
H1038       H  0.06088897  0.22985306  0.44011225     0.34400
H1039       H  0.96233444  0.21808953  0.39261686     0.26100
H1040       H  0.07173884  0.23210990  0.34601931     0.32100
H1041       H  0.08555617  0.19503449  0.39763263     0.38000
H1042       H  0.91647707  0.15901540  0.45220764     0.32400
H1043       H  0.93748728  0.12310160  0.50961032     0.31300
H1044       H  0.98617021  0.11834508  0.54962685     0.33000
H1045       H  0.07686845  0.16374432  0.49439512     0.32000
H1046       H  0.93876913  0.14679708  0.37685468     0.36000
H1047       H  0.98318348  0.10386649  0.36349278     0.28700
H1048       H  0.04326559  0.25667086  0.51641803     0.32900
H1049       H  0.07653792  0.21882516  0.49939604     0.35800
H1050       H  0.95052607  0.12798219  0.54468568     0.28400
H1051       H  0.96522891  0.11314428  0.35562812     0.41300
H1052       H  0.00904897  0.23231440  0.33842942     0.31300
H1053       H  0.96619015  0.20476446  0.36403164     0.38900
H1054       H  0.04994127  0.14833745  0.50433555     0.30800
H1055       H  0.07799524  0.24385147  0.38093840     0.30900
H1056       H  0.06233145  0.25076940  0.50289420     0.31100
Zr1057     Zr  0.85709893  0.86912941  0.97973225     2.17500
O1058       O  0.86725286  0.90064408  0.01731278    -0.51200
O1059       O  0.89995692  0.88247230  0.98052216    -0.74400
O1060       O  0.85053921  0.85515300  0.04073357    -0.81200
O1061       O  0.86460427  0.91135471  0.90242358    -0.83000
O1062       O  0.82758317  0.81573515  0.04513903    -0.78600
O1063       O  0.86909078  0.90918320  0.95995537    -0.90200
O1064       O  0.90797919  0.86071771  0.94589675    -0.76200
O1065       O  0.85773967  0.83329776  0.97839500    -0.85700
O1066       O  0.87078107  0.86880048  0.92381312    -0.85400
O1067       O  0.81620266  0.83964571  0.98983051    -0.72100
O1068       O  0.82899147  0.87180484  0.94089297    -0.84300
Zr1069     Zr  0.80342157  0.80437512  0.89271343     2.26400
Zr1070     Zr  0.81706139  0.80382843  0.98759304     2.06300
Zr1071     Zr  0.84320447  0.87119349  0.88532920     2.10000
Zr1072     Zr  0.87097643  0.83294003  0.92182236     1.78800
O1073       O  0.82012268  0.88827122  0.86023313    -0.93100
O1074       O  0.88539130  0.80815994  0.94981231    -0.40900
O1075       O  0.84367564  0.83506925  0.88188186    -0.77500
O1076       O  0.83116162  0.80211719  0.93224361    -0.96200
O1077       O  0.78888182  0.80492909  0.94805631    -0.89500
O1078       O  0.80321904  0.84059818  0.89371247    -0.92300
C1079       C  0.91432706  0.87746695  0.96552958     1.01400
C1080       C  0.87157436  0.92079702  0.93114482     1.14300
C1081       C  0.83930976  0.83539806  0.05831075     1.05100
O1082       O  0.83552008  0.78166754  0.01169961    -0.94500
O1083       O  0.79423314  0.76394017  0.97376150    -0.90200
O1084       O  0.78510249  0.76334065  0.91722213    -0.83400
C1085       C  0.78455273  0.75323507  0.94702460     1.11800
O1086       O  0.78444074  0.86569024  0.98855243    -0.96500
Zr1087     Zr  0.78862939  0.84086683  0.94884809     1.88900
O1088       O  0.76421581  0.79829910  0.87818894    -0.73100
O1089       O  0.78171139  0.78372777  0.02449047    -0.52400
O1090       O  0.75892797  0.81662870  0.99295029    -0.97100
O1091       O  0.77686592  0.86826927  0.92252690    -0.54300
O1092       O  0.75440046  0.81877076  0.91282077    -0.73600
C1093       C  0.75005531  0.80521002  0.88830963     0.98700
O1094       O  0.79606248  0.77176362  0.85901650    -0.62500
O1095       O  0.87795308  0.89649972  0.84918851    -0.57300
O1096       O  0.81303083  0.81816336  0.83186439    -0.93900
O1097       O  0.83590157  0.85770555  0.82836012    -0.92400
O1098       O  0.89756943  0.85303677  0.87260332    -0.92700
O1099       O  0.87349145  0.80616663  0.88433997    -0.91500
C1100       C  0.82466893  0.83811300  0.81478314     1.17500
H1101       H  0.88615502  0.88213034  0.91837428     0.33500
H1102       H  0.83107879  0.78748353  0.93083589     0.44300
H1103       H  0.79376890  0.84236987  0.87562039     0.37900
H1104       H  0.81070465  0.84071585  0.01208204     0.34400
H1105       H  0.89277494  0.81568877  0.97109764     0.26100
H1106       H  0.78560950  0.77497075  0.04266346     0.32100
H1107       H  0.74353216  0.81204275  0.98195030     0.38000
H1108       H  0.90588734  0.86975390  0.87726129     0.32400
H1109       H  0.88277769  0.88589065  0.83958721     0.31300
H1110       H  0.83123098  0.90065063  0.84345286     0.33000
H1111       H  0.77406093  0.86462637  0.89818489     0.32000
H1112       H  0.85799155  0.79877031  0.87292841     0.36000
H1113       H  0.78956764  0.77419212  0.83697973     0.28700
H1114       H  0.87518880  0.89785596  0.03750053     0.32900
H1115       H  0.76730444  0.86063696  0.98955173     0.35800
H1116       H  0.87186669  0.90206870  0.82939828     0.28400
H1117       H  0.81198173  0.77420837  0.85319013     0.41300
H1118       H  0.82463790  0.77144447  0.03063048     0.31300
H1119       H  0.87090443  0.79366739  0.95780096     0.38900
H1120       H  0.79145650  0.88365475  0.92189044     0.30800
H1121       H  0.78097330  0.79617152  0.03634440     0.30900
H1122       H  0.85193938  0.89831044  0.02606109     0.31100
Zr1123     Zr  0.86108631  0.87524896  0.47551338     2.17500
O1124       O  0.87830042  0.90911425  0.51005919    -0.51200
O1125       O  0.90404563  0.88877311  0.47379481    -0.74400
O1126       O  0.85422531  0.86608572  0.53743837    -0.81200
O1127       O  0.86322237  0.91298061  0.39486039    -0.83000
O1128       O  0.83086985  0.82693124  0.54733600    -0.78600
O1129       O  0.86771768  0.91298140  0.45251800    -0.90200
O1130       O  0.91074661  0.86364653  0.44524980    -0.76200
O1131       O  0.86136600  0.83914827  0.48051442    -0.85700
O1132       O  0.87353435  0.87121029  0.42069930    -0.85400
O1133       O  0.82019478  0.84652115  0.48851547    -0.72100
O1134       O  0.83213259  0.87558404  0.43613400    -0.84300
Zr1135     Zr  0.80510792  0.80470322  0.39795523     2.26400
Zr1136     Zr  0.82080297  0.81029318  0.49242666     2.06300
Zr1137     Zr  0.84518951  0.87170418  0.38147866     2.10000
Zr1138     Zr  0.87297954  0.83460928  0.42522680     1.78800
O1139       O  0.82502335  0.88943092  0.34877356    -0.93100
O1140       O  0.88369467  0.81018989  0.46266178    -0.40900
O1141       O  0.84515748  0.83496964  0.38457274    -0.77500
O1142       O  0.83324130  0.80428779  0.43844726    -0.96200
O1143       O  0.79217609  0.80921396  0.45199208    -0.89500
O1144       O  0.80513692  0.84122674  0.39273775    -0.92300
C1145       C  0.91793300  0.88221618  0.46114575     1.01400
C1146       C  0.86885257  0.92334264  0.42308103     1.14300
C1147       C  0.84260351  0.84758126  0.55733062     1.05100
O1148       O  0.84233434  0.79134466  0.51723091    -0.94500
O1149       O  0.79348914  0.76974355  0.48535075    -0.90200
O1150       O  0.78531772  0.76520899  0.42871451    -0.83400
C1151       C  0.78303575  0.75714167  0.46041736     1.11800
O1152       O  0.78339292  0.86909482  0.48283767    -0.96500
Zr1153     Zr  0.79188328  0.84511836  0.44687411     1.88900
O1154       O  0.76500207  0.79666862  0.38508123    -0.73100
O1155       O  0.78855619  0.79042279  0.53471610    -0.52400
O1156       O  0.76301630  0.82205344  0.49260360    -0.97100
O1157       O  0.78400736  0.87404412  0.41628566    -0.54300
O1158       O  0.75677169  0.82063885  0.41414235    -0.73600
C1159       C  0.75112749  0.80434434  0.39359463     0.98700
O1160       O  0.79840088  0.77131652  0.36658514    -0.62500
O1161       O  0.88057288  0.89262256  0.34480100    -0.57300
O1162       O  0.81432368  0.81492341  0.33634525    -0.93900
O1163       O  0.83634779  0.85442900  0.32681727    -0.92400
O1164       O  0.90095017  0.84948234  0.37684448    -0.92700
O1165       O  0.87599245  0.80592289  0.39263444    -0.91500
C1166       C  0.82560883  0.83369389  0.31656628     1.17500
H1167       H  0.88891515  0.88401041  0.41389915     0.33500
H1168       H  0.83273883  0.78934502  0.43947610     0.44300
H1169       H  0.79522143  0.84173155  0.37434430     0.37900
H1170       H  0.81481914  0.84918624  0.50973171     0.34400
H1171       H  0.89863300  0.81232177  0.45260372     0.26100
H1172       H  0.79521518  0.78574414  0.55476368     0.32100
H1173       H  0.75121716  0.80773170  0.48212575     0.38000
H1174       H  0.90311787  0.86522708  0.37045445     0.32400
H1175       H  0.87759511  0.90352374  0.32955586     0.31300
H1176       H  0.83678612  0.90016476  0.33107173     0.33000
H1177       H  0.76660873  0.86735917  0.41798336     0.32000
H1178       H  0.85945658  0.79482383  0.38689495     0.36000
H1179       H  0.78753686  0.77046414  0.34791530     0.28700
H1180       H  0.88884346  0.90675983  0.52655916     0.32900
H1181       H  0.76604446  0.86291431  0.48185812     0.35800
H1182       H  0.89341301  0.90282305  0.35978649     0.28400
H1183       H  0.81369620  0.77589190  0.35495945     0.41300
H1184       H  0.83919202  0.77879437  0.50197915     0.31300
H1185       H  0.88852272  0.81813676  0.48428894     0.38900
H1186       H  0.78723721  0.87336759  0.39186421     0.30800
H1187       H  0.78532785  0.80258095  0.54256452     0.30900
H1188       H  0.86517568  0.90807924  0.52412964     0.31100
C1189       C  0.83424761  0.82668920  0.72342327    -0.05400
C1190       C  0.83348242  0.84535568  0.70447249     0.08800
C1191       C  0.82887263  0.86089801  0.72155166    -0.02800
C1192       C  0.82393323  0.85719277  0.75707472    -0.01000
C1193       C  0.82585342  0.83921292  0.77658661    -0.04600
C1194       C  0.83119237  0.82404377  0.75945787     0.02400
C1195       C  0.83654060  0.84808253  0.66627873     0.09200
C1196       C  0.82979491  0.88109092  0.70258228     0.35100
C1197       C  0.83488662  0.80653145  0.77879157     0.38600
C1198       C  0.81680335  0.84289888  0.64539581    -0.05000
C1199       C  0.81939364  0.84459639  0.60948661     0.02200
C1200       C  0.84131271  0.84995234  0.59435336    -0.04600
C1201       C  0.86118842  0.85575095  0.61501185    -0.00800
C1202       C  0.85897000  0.85553355  0.65089167    -0.03400
C1203       C  0.79371313  0.83540271  0.66087759     0.35900
C1204       C  0.88358000  0.86097201  0.59937435     0.39500
C1205       C  0.79961351  0.84134989  0.58808827     0.38600
C1206       C  0.87971306  0.86307489  0.67200051     0.35500
C1207       C  0.83846874  0.81035469  0.70575506     0.36200
C1208       C  0.81588956  0.87141686  0.77301718     0.39500
N1209       N  0.78386264  0.83913236  0.57126210    -0.38600
N1210       N  0.77531760  0.82945173  0.67324032    -0.40200
N1211       N  0.90127818  0.86490117  0.58656604    -0.37900
N1212       N  0.89628625  0.86929471  0.68887390    -0.40300
N1213       N  0.83078706  0.89729632  0.68745015    -0.40100
N1214       N  0.80900004  0.88261594  0.78501560    -0.37700
N1215       N  0.83817316  0.79267259  0.79392244    -0.38800
N1216       N  0.84188389  0.79741155  0.69151052    -0.40400
C1217       C  0.83922470  0.81681724  0.15313610    -0.05400
C1218       C  0.83278788  0.83161404  0.16886522     0.08800
C1219       C  0.82930335  0.84814618  0.14847078    -0.02800
C1220       C  0.83209210  0.84985406  0.11248599    -0.01000
C1221       C  0.83855652  0.83505650  0.09647199    -0.04600
C1222       C  0.84194189  0.81838197  0.11711322     0.02400
C1223       C  0.83074280  0.83065254  0.20712464     0.09200
C1224       C  0.82259928  0.86330743  0.16467894     0.35100
C1225       C  0.84827622  0.80275894  0.10150906     0.38600
C1226       C  0.85135066  0.84245922  0.22633844    -0.05000
C1227       C  0.84962763  0.84312961  0.26207648     0.02200
C1228       C  0.82720904  0.83158854  0.27913876    -0.04600
C1229       C  0.80660170  0.81893506  0.26000179    -0.00800
C1230       C  0.80835102  0.81886544  0.22400015    -0.03400
C1231       C  0.87439315  0.85421831  0.20908977     0.35900
C1232       C  0.78355382  0.80642973  0.27714395     0.39500
C1233       C  0.87116042  0.85530799  0.28125088     0.38600
C1234       C  0.78709136  0.80714589  0.20414451     0.35500
C1235       C  0.84303716  0.79993380  0.17411678     0.36200
C1236       C  0.82675070  0.86589856  0.09211136     0.39500
N1237       N  0.88853370  0.86505183  0.29610114    -0.38600
N1238       N  0.89272205  0.86348070  0.19522785    -0.40200
N1239       N  0.76518252  0.79627219  0.29084029    -0.37900
N1240       N  0.77010718  0.79796766  0.18827631    -0.40300
N1241       N  0.81716855  0.87530401  0.17769129    -0.40100
N1242       N  0.82210345  0.87865227  0.07649713    -0.37700
N1243       N  0.85319144  0.79008568  0.08943246    -0.38800
N1244       N  0.84617004  0.78649152  0.19076003    -0.40400
C1245       C  0.90856807  0.98931877  0.40832492    -0.05400
C1246       C  0.90059171  0.99739743  0.43503690     0.08800
C1247       C  0.88030176  0.98134598  0.45464970    -0.02800
C1248       C  0.86888531  0.95734944  0.44885527    -0.01000
C1249       C  0.87748946  0.94901487  0.42315077    -0.04600
C1250       C  0.89667127  0.96537699  0.40173473     0.02400
C1251       C  0.91334586  0.02292608  0.44188666     0.09200
C1252       C  0.87138644  0.98945959  0.48132819     0.35100
C1253       C  0.90463580  0.95771006  0.37337006     0.38600
C1254       C  0.91111196  0.03928491  0.41912622    -0.05000
C1255       C  0.92459789  0.06342937  0.42364457     0.02200
C1256       C  0.94070852  0.07165478  0.45095748    -0.04600
C1257       C  0.94116587  0.05506170  0.47564703    -0.00800
C1258       C  0.92784791  0.03085512  0.47078383    -0.03400
C1259       C  0.89484864  0.03114833  0.39092191     0.35900
C1260       C  0.95556831  0.06270302  0.50577591     0.39500
C1261       C  0.92115902  0.07980053  0.40079133     0.38600
C1262       C  0.92948834  0.01401773  0.49501644     0.35500
C1263       C  0.92971855  0.00560120  0.38853936     0.36200
C1264       C  0.84798294  0.94116666  0.46927506     0.39500
N1265       N  0.91820905  0.09282308  0.38278680    -0.38600
N1266       N  0.88182255  0.02449700  0.36851115    -0.40200
N1267       N  0.96684195  0.06858852  0.53009459    -0.37900
N1268       N  0.93056999  0.00038622  0.51420248    -0.40300
N1269       N  0.86427380  0.99580631  0.50278933    -0.40100
N1270       N  0.83131380  0.92821798  0.48549392    -0.37700
N1271       N  0.91102717  0.95196526  0.35030536    -0.38800
N1272       N  0.94669316  0.01866174  0.37301221    -0.40400
C1273       C  0.99252733  0.16918411  0.72788480    -0.05400
C1274       C  0.01326590  0.18316504  0.70777498     0.08800
C1275       C  0.03502753  0.19627661  0.72396866    -0.02800
C1276       C  0.03615488  0.19532253  0.76008768    -0.01000
C1277       C  0.01532259  0.18175179  0.78038577    -0.04600
C1278       C  0.99342612  0.16893071  0.76400701     0.02400
C1279       C  0.01221325  0.18450709  0.66941878     0.09200
C1280       C  0.05622980  0.21098370  0.70320581     0.35100
C1281       C  0.97151803  0.15681293  0.78411829     0.38600
C1282       C  0.00292990  0.19781299  0.65231501    -0.05000
C1283       C  0.00126043  0.19851500  0.61622927     0.02200
C1284       C  0.01005747  0.18689683  0.59695107    -0.04600
C1285       C  0.02086430  0.17495658  0.61404969    -0.00800
C1286       C  0.02133169  0.17321838  0.65013831    -0.03400
C1287       C  0.99563099  0.21120586  0.67194940     0.35900
C1288       C  0.03239896  0.16524724  0.59440451     0.39500
C1289       C  0.98972769  0.21045512  0.59918255     0.38600
C1290       C  0.03145364  0.16002141  0.66750437     0.35500
C1291       C  0.97021795  0.15517889  0.71131511     0.36200
C1292       C  0.05889344  0.20810140  0.77613387     0.39500
N1293       N  0.98038192  0.21986638  0.58566648    -0.38600
N1294       N  0.99011036  0.22204809  0.68780236    -0.40200
N1295       N  0.04181191  0.15779165  0.57861342    -0.37900
N1296       N  0.03963222  0.14961816  0.68142914    -0.40300
N1297       N  0.07297288  0.22258884  0.68626359    -0.40100
N1298       N  0.07724785  0.21834453  0.78838839    -0.37700
N1299       N  0.95396668  0.14747663  0.79999812    -0.38800
N1300       N  0.95244906  0.14396750  0.69807306    -0.40400
C1301       C  0.02458793  0.19284750  0.14943454    -0.05400
C1302       C  0.00512437  0.17588981  0.16971200     0.08800
C1303       C  0.98356388  0.16149212  0.15392241    -0.02800
C1304       C  0.98130149  0.16424296  0.11826208    -0.01000
C1305       C  0.00108096  0.18033694  0.09755539    -0.04600
C1306       C  0.02280354  0.19469785  0.11339111     0.02400
C1307       C  0.00655495  0.17450544  0.20803265     0.09200
C1308       C  0.96355291  0.14389811  0.17452270     0.35100
C1309       C  0.04353964  0.21098749  0.09280888     0.38600
C1310       C  0.99600089  0.18437367  0.22746587    -0.05000
C1311       C  0.99693347  0.18306474  0.26349364     0.02200
C1312       C  0.00967911  0.17310803  0.28052775    -0.04600
C1313       C  0.02000919  0.16291032  0.26109013    -0.00800
C1314       C  0.01788838  0.16308268  0.22496833    -0.03400
C1315       C  0.98412025  0.19593210  0.21024812     0.35900
C1316       C  0.03360384  0.15312343  0.27795215     0.39500
C1317       C  0.98392481  0.19126814  0.28300560     0.38600
C1318       C  0.02695485  0.15119738  0.20518365     0.35500
C1319       C  0.04628617  0.20875208  0.16578990     0.36200
C1320       C  0.95819324  0.15127002  0.10317382     0.39500
N1321       N  0.97318934  0.19761946  0.29812828    -0.38600
N1322       N  0.97465552  0.20512044  0.19643897    -0.40200
N1323       N  0.04467141  0.14548348  0.29122728    -0.37900
N1324       N  0.03390738  0.14150121  0.18931300    -0.40300
N1325       N  0.94757145  0.12980138  0.19085944    -0.40100
N1326       N  0.93972309  0.14115086  0.09119549    -0.37700
N1327       N  0.06021132  0.22401307  0.07665681    -0.38800
N1328       N  0.06354410  0.22159553  0.17879457    -0.40400
C1329       C  0.88615984  0.98454187  0.91242508    -0.05400
C1330       C  0.90549551  0.99627221  0.93403502     0.08800
C1331       C  0.91398093  0.98342400  0.95414050    -0.02800
C1332       C  0.90310536  0.95895415  0.95305885    -0.01000
C1333       C  0.88347566  0.94690102  0.93154096    -0.04600
C1334       C  0.87512774  0.96000814  0.91122877     0.02400
C1335       C  0.91773769  0.02235930  0.93493373     0.09200
C1336       C  0.93424646  0.99562936  0.97576028     0.35100
C1337       C  0.85449743  0.94835872  0.89016721     0.38600
C1338       C  0.90891890  0.03310293  0.95594298    -0.05000
C1339       C  0.92132639  0.05763320  0.95813894     0.02200
C1340       C  0.94317007  0.07161522  0.94007029    -0.04600
C1341       C  0.95185696  0.06050666  0.91901560    -0.00800
C1342       C  0.93906964  0.03617416  0.91625136    -0.03400
C1343       C  0.88713631  0.01872243  0.97563355     0.35900
C1344       C  0.97437471  0.07372030  0.90058538     0.39500
C1345       C  0.91084279  0.06828917  0.97777425     0.38600
C1346       C  0.94807157  0.02515974  0.89439548     0.35500
C1347       C  0.87763052  0.99779865  0.89132859     0.36200
C1348       C  0.91267686  0.94650247  0.97387974     0.39500
N1349       N  0.90180577  0.07620843  0.99336786    -0.38600
N1350       N  0.86978570  0.00708976  0.99133269    -0.40200
N1351       N  0.99222228  0.08367574  0.88549668    -0.37900
N1352       N  0.95526443  0.01639084  0.87700813    -0.40300
N1353       N  0.95049680  0.00558169  0.99271403    -0.40100
N1354       N  0.92050269  0.93690369  0.99083570    -0.37700
N1355       N  0.83796370  0.93938038  0.87337874    -0.38800
N1356       N  0.87075720  0.00830678  0.87447178    -0.40400
C1357       C  0.97958060  0.93379339  0.44147695    -0.05400
C1358       C  0.99403254  0.92362295  0.44948618     0.08800
C1359       C  0.98365524  0.90079703  0.46541271    -0.02800
C1360       C  0.95888200  0.88771352  0.47122934    -0.01000
C1361       C  0.94421543  0.89756829  0.46226223    -0.04600
C1362       C  0.95492240  0.92111692  0.44879957     0.02400
C1363       C  0.02039252  0.93734204  0.44279571     0.09200
C1364       C  0.99850170  0.89070383  0.47579518     0.35100
C1365       C  0.94062238  0.93226040  0.44157640     0.38600
C1366       C  0.03480205  0.95497936  0.46431879    -0.05000
C1367       C  0.05968570  0.96687587  0.45988962     0.02200
C1368       C  0.07073007  0.96110400  0.43384979    -0.04600
C1369       C  0.05597098  0.94445478  0.41073751    -0.00800
C1370       C  0.03097529  0.93270342  0.41526212    -0.03400
C1371       C  0.02383144  0.96110816  0.49092150     0.35900
C1372       C  0.06622565  0.93903934  0.38243484     0.39500
C1373       C  0.07355810  0.98566174  0.48178020     0.38600
C1374       C  0.01596132  0.91606208  0.39120499     0.35500
C1375       C  0.99011060  0.95715596  0.42479663     0.36200
C1376       C  0.94848767  0.86404473  0.48671431     0.39500
N1377       N  0.08405542  0.00056329  0.49961285    -0.38600
N1378       N  0.01489094  0.96608888  0.51170014    -0.40200
N1379       N  0.07418127  0.93473463  0.35953222    -0.37900
N1380       N  0.00386780  0.90290189  0.37194934    -0.40300
N1381       N  0.01024734  0.88256577  0.48422712    -0.40100
N1382       N  0.94027779  0.84516200  0.49903035    -0.37700
N1383       N  0.92943574  0.94144252  0.43624471    -0.38800
N1384       N  0.99868276  0.97577364  0.41141472    -0.40400
C1385       C  0.09320034  0.11467102  0.41506027    -0.05400
C1386       C  0.08284378  0.09466465  0.43824400     0.08800
C1387       C  0.05978708  0.08663676  0.45152498    -0.02800
C1388       C  0.04707671  0.09837761  0.44150236    -0.01000
C1389       C  0.05766042  0.11883588  0.41915978    -0.04600
C1390       C  0.08077185  0.12682873  0.40586104     0.02400
C1391       C  0.09580927  0.08141417  0.44739614     0.09200
C1392       C  0.04971687  0.06706477  0.47707747     0.35100
C1393       C  0.09207822  0.14807821  0.38352659     0.38600
C1394       C  0.11359102  0.08903169  0.47237207    -0.05000
C1395       C  0.12698874  0.07745301  0.47864645     0.02200
C1396       C  0.12273234  0.05825913  0.45987462    -0.04600
C1397       C  0.10428301  0.05018125  0.43580418    -0.00800
C1398       C  0.09073511  0.06152661  0.42997074    -0.03400
C1399       C  0.11838153  0.10910622  0.49099660     0.35900
C1400       C  0.10010544  0.03120386  0.41500004     0.39500
C1401       C  0.14548886  0.08557204  0.50384620     0.38600
C1402       C  0.07199956  0.05323519  0.40503228     0.35500
C1403       C  0.11703245  0.12327369  0.40164368     0.36200
C1404       C  0.02365862  0.09024460  0.45605751     0.39500
N1405       N  0.16021216  0.09204549  0.52404856    -0.38600
N1406       N  0.12216331  0.12518464  0.50572065    -0.40200
N1407       N  0.09635731  0.01634981  0.39753043    -0.37900
N1408       N  0.05698610  0.04665083  0.38528094    -0.40300
N1409       N  0.04183120  0.05165879  0.49781245    -0.40100
N1410       N  0.00495358  0.08369659  0.46767481    -0.37700
N1411       N  0.10115469  0.16508842  0.36584690    -0.38800
N1412       N  0.13611147  0.13034043  0.39105722    -0.40400
C1413       C  0.19873198  0.01174859  0.71859580    -0.05400
C1414       C  0.18170375  0.01616296  0.70193063     0.08800
C1415       C  0.16589976  0.01977152  0.72155390    -0.02800
C1416       C  0.16643998  0.01810779  0.75774353    -0.01000
C1417       C  0.18254247  0.01225223  0.77493888    -0.04600
C1418       C  0.19925256  0.00983091  0.75485467     0.02400
C1419       C  0.18014800  0.01657515  0.66358550     0.09200
C1420       C  0.14908436  0.02534638  0.70430924     0.35100
C1421       C  0.21689599  0.00505386  0.77102744     0.38600
C1422       C  0.16647362  0.99559304  0.64756952    -0.05000
C1423       C  0.16526011  0.99574961  0.61151475     0.02200
C1424       C  0.17870549  0.01671245  0.59111251    -0.04600
C1425       C  0.19285411  0.03766481  0.60712459    -0.00800
C1426       C  0.19273486  0.03773058  0.64325883    -0.03400
C1427       C  0.15414343  0.97368965  0.66821379     0.35900
C1428       C  0.20802793  0.05899157  0.58651700     0.39500
C1429       C  0.15131773  0.97401401  0.59538569     0.38600
C1430       C  0.20536786  0.05952115  0.65964133     0.35500
C1431       C  0.21568239  0.00908984  0.69814842     0.36200
C1432       C  0.15113307  0.02375050  0.77688267     0.39500
N1433       N  0.14026993  0.95664759  0.58256841    -0.38600
N1434       N  0.14444068  0.95612033  0.68451496    -0.40200
N1435       N  0.22044587  0.07591401  0.57012152    -0.37900
N1436       N  0.21507472  0.07688483  0.67287329    -0.40300
N1437       N  0.13573562  0.02986784  0.69053804    -0.40100
N1438       N  0.13893950  0.02868666  0.79135038    -0.37700
N1439       N  0.23120279  0.00139643  0.78348760    -0.38800
N1440       N  0.22915401  0.00706886  0.68159086    -0.40400
C1441       C  0.16753933  0.00531383  0.15044946    -0.05400
C1442       C  0.18452226  0.02623357  0.16400936     0.08800
C1443       C  0.19819235  0.04607430  0.14167854    -0.02800
C1444       C  0.19509964  0.04485928  0.10586511    -0.01000
C1445       C  0.17921502  0.02343011  0.09208056    -0.04600
C1446       C  0.16546258  0.00364777  0.11467124     0.02400
C1447       C  0.18847376  0.02667506  0.20184748     0.09200
C1448       C  0.21594458  0.06745866  0.15559003     0.35100
C1449       C  0.15067469  0.98103573  0.10137172     0.38600
C1450       C  0.20049572  0.01542790  0.21714806    -0.05000
C1451       C  0.20075222  0.01216188  0.25314181     0.02200
C1452       C  0.18963773  0.02081752  0.27405600    -0.04600
C1453       C  0.17921876  0.03363460  0.25874986    -0.00800
C1454       C  0.17829487  0.03622577  0.22275318    -0.03400
C1455       C  0.21195237  0.00651916  0.19577943     0.35900
C1456       C  0.16946159  0.04422443  0.28004098     0.39500
C1457       C  0.21107785  0.99855893  0.26855070     0.38600
C1458       C  0.16605263  0.04793262  0.20732794     0.35500
C1459       C  0.15260012  0.98528260  0.17357573     0.36200
C1460       C  0.20814497  0.06572960  0.08325391     0.39500
N1461       N  0.21912280  0.98759367  0.28100105    -0.38600
N1462       N  0.22114960  0.99938273  0.17890023    -0.40200
N1463       N  0.16172722  0.05276474  0.29691275    -0.37900
N1464       N  0.15618363  0.05726390  0.19534175    -0.40300
N1465       N  0.23017354  0.08441333  0.16687340    -0.40100
N1466       N  0.21841479  0.08250283  0.06538625    -0.37700
N1467       N  0.13915254  0.96279576  0.09117916    -0.38800
N1468       N  0.14075571  0.96947332  0.19230923    -0.40400
C1469       C  0.02768538  0.92232766  0.93202172    -0.05400
C1470       C  0.01699970  0.93026085  0.95499680     0.08800
C1471       C  0.03126410  0.95078488  0.97148436    -0.02800
C1472       C  0.05594999  0.96354478  0.96477718    -0.01000
C1473       C  0.06709420  0.95531379  0.94259719    -0.04600
C1474       C  0.05256110  0.93467151  0.92591452     0.02400
C1475       C  0.99050517  0.91780091  0.96039297     0.09200
C1476       C  0.02037961  0.95877037  0.99554299     0.35100
C1477       C  0.06300507  0.92582575  0.90268327     0.38600
C1478       C  0.97927651  0.89896884  0.98546517    -0.05000
C1479       C  0.95424458  0.88660232  0.98904076     0.02200
C1480       C  0.94031882  0.89316611  0.96785827    -0.04600
C1481       C  0.95166972  0.91290723  0.94427011    -0.00800
C1482       C  0.97660823  0.92510340  0.94050904    -0.03400
C1483       C  0.99353356  0.89220352  0.00724865     0.35900
C1484       C  0.93768586  0.92025984  0.92278943     0.39500
C1485       C  0.94272860  0.86694231  0.01417815     0.38600
C1486       C  0.98796601  0.94490282  0.91549669     0.35500
C1487       C  0.01292706  0.90133618  0.91467885     0.36200
C1488       C  0.06940749  0.98583176  0.97965146     0.39500
N1489       N  0.93345842  0.85129020  0.03431215    -0.38600
N1490       N  0.00499477  0.88690006  0.02464962    -0.40200
N1491       N  0.92683479  0.92642443  0.90551692    -0.37900
N1492       N  0.99688329  0.96068047  0.89549046    -0.40300
N1493       N  0.01165309  0.96500044  0.01484529    -0.40100
N1494       N  0.07951014  0.00359668  0.99173165    -0.37700
N1495       N  0.07109727  0.91866003  0.88388333    -0.38800
N1496       N  0.00104188  0.88457203  0.90091673    -0.40400
C1497       C  0.08707129  0.11344211  0.91041565    -0.05400
C1498       C  0.07661135  0.09288459  0.93259599     0.08800
C1499       C  0.05395328  0.08533517  0.94714830    -0.02800
C1500       C  0.04234908  0.09869799  0.94084046    -0.01000
C1501       C  0.05295861  0.11946758  0.91904463    -0.04600
C1502       C  0.07515630  0.12644260  0.90328012     0.02400
C1503       C  0.08990529  0.07975567  0.94166588     0.09200
C1504       C  0.04314352  0.06438122  0.97008850     0.35100
C1505       C  0.08600062  0.14736172  0.88026128     0.38600
C1506       C  0.10697970  0.08710501  0.96772768    -0.05000
C1507       C  0.12063756  0.07581785  0.97466382     0.02200
C1508       C  0.11756357  0.05723844  0.95536839    -0.04600
C1509       C  0.09956826  0.04908683  0.93059442    -0.00800
C1510       C  0.08568404  0.06011698  0.92405423    -0.03400
C1511       C  0.11054669  0.10643648  0.98726105     0.35900
C1512       C  0.09554177  0.02955549  0.91113310     0.39500
C1513       C  0.13778809  0.08321341  0.00176231     0.38600
C1514       C  0.06718894  0.05136966  0.89884172     0.35500
C1515       C  0.11066143  0.12184434  0.89624036     0.36200
C1516       C  0.02022303  0.09189479  0.95879789     0.39500
N1517       N  0.15128591  0.08893136  0.02368544    -0.38600
N1518       N  0.11328788  0.12186442  0.00280421    -0.40200
N1519       N  0.09195083  0.01392532  0.89544933    -0.37900
N1520       N  0.05235628  0.04414107  0.87886197    -0.40300
N1521       N  0.03462642  0.04766695  0.98843262    -0.40100
N1522       N  0.00266405  0.08646314  0.97340366    -0.37700
N1523       N  0.09463265  0.16396026  0.86168791    -0.38800
N1524       N  0.12961643  0.12871802  0.88528679    -0.40400
C1525       C  0.65625115  0.74733766  0.79868419    -0.05400
C1526       C  0.66286773  0.76916896  0.81134892     0.08800
C1527       C  0.64758586  0.77873504  0.80727365    -0.02800
C1528       C  0.62528158  0.76603078  0.79198433    -0.01000
C1529       C  0.61815093  0.74362326  0.78061975    -0.04600
C1530       C  0.63387054  0.73440363  0.78405345     0.02400
C1531       C  0.68514103  0.78092582  0.83140396     0.09200
C1532       C  0.65475664  0.80154278  0.81929545     0.35100
C1533       C  0.62694609  0.71128393  0.77342338     0.38600
C1534       C  0.70728917  0.79403088  0.81434845    -0.05000
C1535       C  0.72841037  0.80217876  0.83303276     0.02200
C1536       C  0.72758668  0.79757812  0.86912404    -0.04600
C1537       C  0.70530102  0.78510684  0.88623906    -0.00800
C1538       C  0.68419134  0.77684502  0.86743624    -0.03400
C1539       C  0.70828534  0.79883616  0.77743244     0.35900
C1540       C  0.70399559  0.77950759  0.92291894     0.39500
C1541       C  0.75099261  0.81529551  0.81484958     0.38600
C1542       C  0.66135999  0.76346826  0.88498474     0.35500
C1543       C  0.67249310  0.73803863  0.80115613     0.36200
C1544       C  0.60913663  0.77542062  0.79030701     0.39500
N1545       N  0.76885027  0.82563593  0.79989763    -0.38600
N1546       N  0.70909880  0.80272939  0.74800663    -0.40200
N1547       N  0.70274811  0.77480279  0.95216231    -0.37900
N1548       N  0.64306621  0.75281325  0.89876790    -0.40300
N1549       N  0.66052034  0.81978199  0.82879445    -0.40100
N1550       N  0.59642969  0.78312303  0.78945863    -0.37700
N1551       N  0.62156299  0.69272501  0.76567037    -0.38800
N1552       N  0.68556351  0.73076401  0.80287235    -0.40400
C1553       C  0.52560401  0.67837189  0.51782684    -0.05400
C1554       C  0.50491629  0.66635958  0.49888996     0.08800
C1555       C  0.48256240  0.65467182  0.51587740    -0.02800
C1556       C  0.48100352  0.65493568  0.55188554    -0.01000
C1557       C  0.50175539  0.66769722  0.57066011    -0.04600
C1558       C  0.52395710  0.68006143  0.55313275     0.02400
C1559       C  0.50706182  0.66820818  0.46071956     0.09200
C1560       C  0.46127693  0.64235628  0.49629978     0.35100
C1561       C  0.54510434  0.69567670  0.57096743     0.38600
C1562       C  0.50607603  0.64979723  0.44302943    -0.05000
C1563       C  0.51035543  0.65271454  0.40725434     0.02200
C1564       C  0.51614489  0.67425207  0.38924987    -0.04600
C1565       C  0.51769150  0.69282205  0.40726367    -0.00800
C1566       C  0.51257900  0.68960421  0.44264014    -0.03400
C1567       C  0.50053415  0.62784142  0.46160013     0.35900
C1568       C  0.52516986  0.71554290  0.38958559     0.39500
C1569       C  0.50782877  0.63325753  0.38888715     0.38600
C1570       C  0.51289592  0.70835257  0.46053468     0.35500
C1571       C  0.54871541  0.68893592  0.50085693     0.36200
C1572       C  0.45821463  0.64173790  0.56955255     0.39500
N1573       N  0.50567884  0.61765607  0.37430169    -0.38600
N1574       N  0.49602243  0.61023772  0.47624966    -0.40200
N1575       N  0.53136571  0.73374451  0.37568449    -0.37900
N1576       N  0.51306207  0.72328586  0.47470703    -0.40300
N1577       N  0.44429499  0.63246748  0.48067233    -0.40100
N1578       N  0.44002540  0.63115740  0.58365347    -0.37700
N1579       N  0.56194489  0.70840849  0.58491302    -0.38800
N1580       N  0.56712230  0.69711727  0.48738024    -0.40400
C1581       C  0.53615961  0.68671947  0.94418226    -0.05400
C1582       C  0.51343549  0.67462202  0.95996496     0.08800
C1583       C  0.49331131  0.66295788  0.93979645    -0.02800
C1584       C  0.49569571  0.66453658  0.90382631    -0.01000
C1585       C  0.51830281  0.67780607  0.88761207    -0.04600
C1586       C  0.53865651  0.68813703  0.90808756     0.02400
C1587       C  0.51057258  0.67412532  0.99795549     0.09200
C1588       C  0.47010378  0.64917374  0.95621212     0.35100
C1589       C  0.56212615  0.70030829  0.89224343     0.38600
C1590       C  0.51135433  0.69340986  0.01284442    -0.05000
C1591       C  0.50913176  0.69318669  0.04876088     0.02200
C1592       C  0.50508446  0.67319885  0.06982630    -0.04600
C1593       C  0.50334613  0.65353138  0.05457815    -0.00800
C1594       C  0.50659173  0.65421309  0.01890984    -0.03400
C1595       C  0.51456327  0.71350715  0.99100934     0.35900
C1596       C  0.49800421  0.63240220  0.07556412     0.39500
C1597       C  0.51244104  0.71401702  0.06397855     0.38600
C1598       C  0.50615981  0.63452533  0.00371781     0.35500
C1599       C  0.55689745  0.69758418  0.96532477     0.36200
C1600       C  0.47483325  0.65159143  0.88368852     0.39500
N1601       N  0.51533172  0.73079149  0.07591004    -0.38600
N1602       N  0.51701470  0.72939360  0.97330768    -0.40200
N1603       N  0.49364844  0.61550561  0.09220542    -0.37900
N1604       N  0.50586412  0.61885365  0.99157475    -0.40300
N1605       N  0.45166544  0.63801879  0.96941726    -0.40100
N1606       N  0.45804356  0.64100103  0.86804620    -0.37700
N1607       N  0.58095081  0.70980644  0.87988605    -0.38800
N1608       N  0.57327444  0.70613691  0.98253059    -0.40400
C1609       C  0.65828394  0.76442577  0.29159494    -0.05400
C1610       C  0.65903423  0.76322843  0.32778630     0.08800
C1611       C  0.63765552  0.75183101  0.34716485    -0.02800
C1612       C  0.61571149  0.74127696  0.33055475    -0.01000
C1613       C  0.61488976  0.74162174  0.29430652    -0.04600
C1614       C  0.63632481  0.75356242  0.27488519     0.02400
C1615       C  0.68239292  0.77371414  0.34553092     0.09200
C1616       C  0.63825562  0.75052945  0.38433757     0.35100
C1617       C  0.63603947  0.75364880  0.23779130     0.38600
C1618       C  0.69588304  0.79808275  0.34725815    -0.05000
C1619       C  0.71821745  0.80810061  0.36292973     0.02200
C1620       C  0.72708485  0.79375896  0.37801904    -0.04600
C1621       C  0.71317310  0.76918545  0.37687435    -0.00800
C1622       C  0.69108691  0.75928772  0.36040039    -0.03400
C1623       C  0.68675957  0.81290927  0.33256372     0.35900
C1624       C  0.72122025  0.75392055  0.39333409     0.39500
C1625       C  0.73239591  0.83329519  0.36161137     0.38600
C1626       C  0.67722572  0.73418930  0.35851753     0.35500
C1627       C  0.68023501  0.77630583  0.27156960     0.36200
C1628       C  0.59392507  0.73006010  0.35098363     0.39500
N1629       N  0.74321619  0.85346061  0.35966002    -0.38600
N1630       N  0.67948021  0.82470946  0.32078032    -0.40200
N1631       N  0.72753433  0.74167465  0.40649946    -0.37900
N1632       N  0.66597210  0.71419940  0.35693005    -0.40300
N1633       N  0.63866612  0.74924354  0.41398794    -0.40100
N1634       N  0.57665042  0.72111649  0.36748417    -0.37700
N1635       N  0.63621055  0.75385819  0.20817457    -0.38800
N1636       N  0.69777691  0.78586876  0.25568465    -0.40400
C1637       C  0.36964845  0.57484939  0.71614243    -0.05400
C1638       C  0.35528018  0.58546210  0.71301198     0.08800
C1639       C  0.36486402  0.60829219  0.69696183    -0.02800
C1640       C  0.38917031  0.62105829  0.68707556    -0.01000
C1641       C  0.40411912  0.61126320  0.69410218    -0.04600
C1642       C  0.39345393  0.58720677  0.70479880     0.02400
C1643       C  0.32993009  0.57216206  0.72559673     0.09200
C1644       C  0.34995984  0.61897573  0.69174324     0.35100
C1645       C  0.40675009  0.57481496  0.70325217     0.38600
C1646       C  0.32265036  0.57843874  0.75517889    -0.05000
C1647       C  0.29853300  0.56654723  0.76593722     0.02200
C1648       C  0.28167333  0.54807712  0.74738589    -0.04600
C1649       C  0.28959191  0.54000726  0.72059059    -0.00800
C1650       C  0.31335475  0.55240732  0.70899332    -0.03400
C1651       C  0.34004384  0.59710074  0.77457252     0.35900
C1652       C  0.27313491  0.51868554  0.70502915     0.39500
C1653       C  0.29117292  0.57369740  0.79553666     0.38600
C1654       C  0.32060022  0.54490727  0.67960306     0.35500
C1655       C  0.36036013  0.55155148  0.73272729     0.36200
C1656       C  0.39857646  0.64401418  0.66940334     0.39500
N1657       N  0.28558118  0.57949727  0.81936020    -0.38600
N1658       N  0.35397691  0.61192055  0.79011064    -0.40200
N1659       N  0.25995700  0.50160429  0.69293237    -0.37900
N1660       N  0.32630176  0.53867990  0.65637198    -0.40300
N1661       N  0.33822586  0.62769111  0.68778692    -0.40100
N1662       N  0.40609643  0.66223966  0.65494095    -0.37700
N1663       N  0.41686305  0.56448016  0.70155921    -0.38800
N1664       N  0.35309686  0.53302875  0.74605920    -0.40400
C1665       C  0.09514701  0.36032001  0.83291910    -0.05400
C1666       C  0.09777254  0.35940021  0.86891926     0.08800
C1667       C  0.11374605  0.37998740  0.88436087    -0.02800
C1668       C  0.12750166  0.40101871  0.86398976    -0.01000
C1669       C  0.12438643  0.40212231  0.82807150    -0.04600
C1670       C  0.10783104  0.38167583  0.81281381     0.02400
C1671       C  0.08399777  0.33662692  0.89032688     0.09200
C1672       C  0.11540014  0.37958785  0.92143194     0.35100
C1673       C  0.10276348  0.38292229  0.77672467     0.38600
C1674       C  0.09570936  0.32502048  0.90559615    -0.05000
C1675       C  0.08256155  0.30279467  0.92319795     0.02200
C1676       C  0.05756877  0.29098231  0.92282397    -0.04600
C1677       C  0.04585507  0.30277755  0.90849665    -0.00800
C1678       C  0.05905563  0.32594648  0.89398155    -0.03400
C1679       C  0.12116559  0.33527647  0.90134062     0.35900
C1680       C  0.02024109  0.29041312  0.90617193     0.39500
C1681       C  0.09470894  0.29168866  0.94083408     0.38600
C1682       C  0.04691560  0.33856702  0.88197238     0.35500
C1683       C  0.07915185  0.33922756  0.81660507     0.36200
C1684       C  0.14510911  0.42143953  0.88009871     0.39500
N1685       N  0.10442161  0.28303018  0.95542833    -0.38600
N1686       N  0.14146073  0.34345382  0.89762923    -0.40200
N1687       N  0.99983795  0.28039685  0.90383733    -0.37900
N1688       N  0.03716101  0.34864479  0.87269913    -0.40300
N1689       N  0.11637906  0.37898297  0.95104384    -0.40100
N1690       N  0.15927144  0.43751097  0.89330919    -0.37700
N1691       N  0.09842645  0.38402841  0.74805653    -0.38800
N1692       N  0.06629426  0.32229154  0.80390251    -0.40400
C1693       C  0.16364580  0.52078688  0.52790077    -0.05400
C1694       C  0.17739167  0.51320926  0.51076102     0.08800
C1695       C  0.19358809  0.50849762  0.52944302    -0.02800
C1696       C  0.19500062  0.50994770  0.56544188    -0.01000
C1697       C  0.18042638  0.51649790  0.58300014    -0.04600
C1698       C  0.16520368  0.52252518  0.56376716     0.02400
C1699       C  0.17486277  0.51038424  0.47286292     0.09200
C1700       C  0.20860518  0.50194113  0.51137355     0.35100
C1701       C  0.15128158  0.53084918  0.58072555     0.38600
C1702       C  0.18567635  0.53016447  0.44947587    -0.05000
C1703       C  0.18309861  0.52767457  0.41386488     0.02200
C1704       C  0.16938883  0.50528575  0.40122841    -0.04600
C1705       C  0.15835717  0.48549607  0.42473446    -0.00800
C1706       C  0.16148586  0.48801192  0.46036634    -0.03400
C1707       C  0.19991855  0.55309013  0.46222195     0.35900
C1708       C  0.14471320  0.46241664  0.41223421     0.39500
C1709       C  0.19444410  0.54835873  0.39038806     0.38600
C1710       C  0.15182318  0.46748772  0.48416828     0.35500
C1711       C  0.14775118  0.52663779  0.50843978     0.36200
C1712       C  0.21053982  0.50346563  0.58447521     0.39500
N1713       N  0.20366390  0.56505060  0.37208082    -0.38600
N1714       N  0.21124682  0.57130966  0.47258433    -0.40200
N1715       N  0.13384500  0.44404313  0.40214676    -0.37900
N1716       N  0.14452801  0.45109283  0.50312126    -0.40300
N1717       N  0.22044185  0.49676408  0.49646490    -0.40100
N1718       N  0.22290268  0.49814059  0.59950236    -0.37700
N1719       N  0.14017922  0.53766599  0.59384025    -0.38800
N1720       N  0.13525805  0.53137232  0.49256746    -0.40400
C1721       C  0.17897368  0.51117511  0.02649845    -0.05400
C1722       C  0.16441529  0.51870336  0.00902908     0.08800
C1723       C  0.15243708  0.52765354  0.02737138    -0.02800
C1724       C  0.15408276  0.52801973  0.06335678    -0.01000
C1725       C  0.16793787  0.51963974  0.08113162    -0.04600
C1726       C  0.18065918  0.51150710  0.06244895     0.02400
C1727       C  0.16117506  0.51620843  0.97136902     0.09200
C1728       C  0.13835926  0.53638482  0.00915681     0.35100
C1729       C  0.19439783  0.50215944  0.08011194     0.38600
C1730       C  0.14638721  0.49402677  0.95926273    -0.05000
C1731       C  0.14605886  0.49071395  0.92398965     0.02200
C1732       C  0.16082113  0.50960518  0.90060323    -0.04600
C1733       C  0.17409571  0.53225294  0.91262053    -0.00800
C1734       C  0.17424839  0.53548331  0.94791143    -0.03400
C1735       C  0.13198650  0.47444302  0.98340873     0.35900
C1736       C  0.18741557  0.55241222  0.88881861     0.39500
C1737       C  0.13110688  0.46762091  0.91228712     0.38600
C1738       C  0.18821270  0.55856169  0.96029214     0.35500
C1739       C  0.19195882  0.50277492  0.00725812     0.36200
C1740       C  0.14157873  0.53714260  0.08205054     0.39500
N1741       N  0.11887568  0.44914986  0.90330010    -0.38600
N1742       N  0.12054034  0.45883861  0.00270164    -0.40200
N1743       N  0.19807402  0.56871760  0.87024236    -0.37900
N1744       N  0.19915918  0.57695688  0.97027232    -0.40300
N1745       N  0.12730932  0.54354642  0.99455257    -0.40100
N1746       N  0.13156183  0.54440811  0.09689392    -0.37700
N1747       N  0.20530161  0.49442918  0.09364133    -0.38800
N1748       N  0.20219847  0.49613009  0.99157848    -0.40400
C1749       C  0.31901504  0.56702642  0.24655873    -0.05400
C1750       C  0.32863331  0.58071601  0.21548663     0.08800
C1751       C  0.31355129  0.58371652  0.19185303    -0.02800
C1752       C  0.28929966  0.57412338  0.19978024    -0.01000
C1753       C  0.27911999  0.55900594  0.22982946    -0.04600
C1754       C  0.29429996  0.55569596  0.25333588     0.02400
C1755       C  0.35481053  0.59310135  0.20808458     0.09200
C1756       C  0.32309466  0.59678416  0.15911597     0.35100
C1757       C  0.28469265  0.54033686  0.28417807     0.38600
C1758       C  0.36638218  0.58054131  0.20007992    -0.05000
C1759       C  0.39118849  0.59230840  0.19438859     0.02200
C1760       C  0.40451307  0.61692981  0.19522036    -0.04600
C1761       C  0.39235011  0.62957765  0.19972244    -0.00800
C1762       C  0.36785217  0.61769033  0.20738670    -0.03400
C1763       C  0.35266864  0.55550165  0.19753627     0.35900
C1764       C  0.40489034  0.65488082  0.19717956     0.39500
C1765       C  0.40287490  0.57900610  0.18724645     0.38600
C1766       C  0.35608259  0.63083894  0.21517017     0.35500
C1767       C  0.33458500  0.56464191  0.27164653     0.36200
C1768       C  0.27534573  0.58109150  0.17751277     0.39500
N1769       N  0.41204045  0.56824416  0.18158686    -0.38600
N1770       N  0.34163174  0.53554532  0.19541815    -0.40200
N1771       N  0.41466680  0.67505895  0.19438691    -0.37900
N1772       N  0.34668981  0.64133119  0.22118012    -0.40300
N1773       N  0.33079851  0.60720621  0.13308844    -0.40100
N1774       N  0.26465139  0.58707663  0.15957425    -0.37700
N1775       N  0.27718223  0.52810459  0.30885044    -0.38800
N1776       N  0.34693065  0.56268562  0.29174959    -0.40400
C1777       C  0.08715031  0.32918948  0.40657032    -0.05400
C1778       C  0.07872197  0.33547629  0.37638189     0.08800
C1779       C  0.05651891  0.31929767  0.36388007    -0.02800
C1780       C  0.04355456  0.29668027  0.38028576    -0.01000
C1781       C  0.05326227  0.28941290  0.40812857    -0.04600
C1782       C  0.07474025  0.30612517  0.42203920     0.02400
C1783       C  0.09276505  0.35927433  0.35795019     0.09200
C1784       C  0.04725773  0.32582699  0.33358248     0.35100
C1785       C  0.08464445  0.29952507  0.45138327     0.38600
C1786       C  0.11098550  0.36390175  0.33411153    -0.05000
C1787       C  0.12285550  0.38569556  0.31474735     0.02200
C1788       C  0.11628221  0.40314146  0.31844802    -0.04600
C1789       C  0.09730441  0.39785802  0.34189770    -0.00800
C1790       C  0.08658152  0.37664424  0.36247232    -0.03400
C1791       C  0.11764785  0.34617577  0.32955324     0.35900
C1792       C  0.08743691  0.41339259  0.34385007     0.39500
C1793       C  0.14163548  0.38972509  0.29087851     0.38600
C1794       C  0.06922698  0.37275784  0.38883623     0.35500
C1795       C  0.10861630  0.34655907  0.42163670     0.36200
C1796       C  0.01988547  0.28094878  0.36895440     0.39500
N1797       N  0.15644540  0.39271787  0.27164901    -0.38600
N1798       N  0.12320272  0.33222026  0.32576048    -0.40200
N1799       N  0.07939511  0.42562756  0.34527508    -0.37900
N1800       N  0.05566891  0.36992863  0.41013469    -0.40300
N1801       N  0.04002533  0.33113164  0.30933552    -0.40100
N1802       N  0.00085816  0.26854303  0.36030561    -0.37700
N1803       N  0.09281651  0.29459168  0.47485559    -0.38800
N1804       N  0.12561665  0.36058217  0.43376450    -0.40400
C1805       C  0.22153717  0.92838353  0.81877672    -0.05400
C1806       C  0.23602049  0.92019818  0.83492270     0.08800
C1807       C  0.24115998  0.92376009  0.87000126    -0.02800
C1808       C  0.23292431  0.93638399  0.88826449    -0.01000
C1809       C  0.21929878  0.94547711  0.87170281    -0.04600
C1810       C  0.21315167  0.94084402  0.83705321     0.02400
C1811       C  0.24697867  0.90902445  0.81454890     0.09200
C1812       C  0.25521821  0.91462385  0.88720036     0.35100
C1813       C  0.19745121  0.94820459  0.82047305     0.38600
C1814       C  0.26764438  0.92316815  0.79434641    -0.05000
C1815       C  0.27878760  0.91303455  0.77645862     0.02200
C1816       C  0.26948296  0.88851545  0.77855058    -0.04600
C1817       C  0.24822101  0.87430018  0.79777176    -0.00800
C1818       C  0.23713140  0.88452381  0.81577441    -0.03400
C1819       C  0.27767211  0.94832726  0.79246983     0.35900
C1820       C  0.23813830  0.84916304  0.80018312     0.39500
C1821       C  0.29960362  0.92798849  0.75518452     0.38600
C1822       C  0.21578797  0.86990525  0.83622509     0.35500
C1823       C  0.21519448  0.92386611  0.78327746     0.36200
C1824       C  0.23916831  0.94064942  0.92381728     0.39500
N1825       N  0.31608683  0.94018453  0.73812343    -0.38600
N1826       N  0.28554894  0.96837950  0.79109184    -0.40200
N1827       N  0.22989965  0.82906634  0.80228231    -0.37900
N1828       N  0.19880761  0.85840329  0.85275867    -0.40300
N1829       N  0.26631929  0.90718893  0.90093451    -0.40100
N1830       N  0.24425502  0.94401418  0.95218817    -0.37700
N1831       N  0.18471027  0.95382901  0.80733702    -0.38800
N1832       N  0.21010213  0.92020420  0.75497037    -0.40400
C1833       C  0.28401476  0.70133178  0.70144564    -0.05400
C1834       C  0.26488582  0.68552270  0.72292023     0.08800
C1835       C  0.25755369  0.69389851  0.74994779    -0.02800
C1836       C  0.26895002  0.71812796  0.75485911    -0.01000
C1837       C  0.28723441  0.73426878  0.73185734    -0.04600
C1838       C  0.29548743  0.72537681  0.70630825     0.02400
C1839       C  0.25229450  0.66009892  0.71618900     0.09200
C1840       C  0.23751205  0.67761236  0.77165499     0.35100
C1841       C  0.31611876  0.74062257  0.68484555     0.38600
C1842       C  0.26178368  0.64563316  0.72771480    -0.05000
C1843       C  0.25030941  0.62188387  0.72039648     0.02200
C1844       C  0.22877039  0.61215326  0.70240911    -0.04600
C1845       C  0.21974964  0.62693902  0.68997933    -0.00800
C1846       C  0.23161759  0.65082696  0.69651034    -0.03400
C1847       C  0.28284035  0.65502385  0.74841651     0.35900
C1848       C  0.19788206  0.61744736  0.67112967     0.39500
C1849       C  0.25993625  0.60715036  0.73338907     0.38600
C1850       C  0.22228924  0.66588043  0.68372996     0.35500
C1851       C  0.29115297  0.69290420  0.67298863     0.36200
C1852       C  0.26158911  0.72624835  0.78333355     0.39500
N1853       N  0.26765629  0.59540256  0.74364322    -0.38600
N1854       N  0.29952522  0.66251902  0.76515952    -0.40200
N1855       N  0.18038882  0.60996274  0.65618937    -0.37900
N1856       N  0.21496804  0.67803785  0.67375005    -0.40300
N1857       N  0.22130522  0.66458838  0.78863183    -0.40100
N1858       N  0.25591423  0.73260248  0.80644948    -0.37700
N1859       N  0.33239870  0.75185898  0.66692731    -0.38800
N1860       N  0.29668165  0.68627963  0.65005315    -0.40400
C1861       C  0.40737929  0.77170016  0.67372611    -0.05400
C1862       C  0.40643421  0.75899243  0.70498426     0.08800
C1863       C  0.39264247  0.75891053  0.73268983    -0.02800
C1864       C  0.38024317  0.77155793  0.72935085    -0.01000
C1865       C  0.38244749  0.78548814  0.69893428    -0.04600
C1866       C  0.39560889  0.78508691  0.67084866     0.02400
C1867       C  0.42069419  0.74651531  0.70953949     0.09200
C1868       C  0.39203471  0.74663729  0.76529028     0.35100
C1869       C  0.39772576  0.79911649  0.63951103     0.38600
C1870       C  0.44555025  0.75939901  0.71321572    -0.05000
C1871       C  0.45892772  0.74777572  0.71875693     0.02200
C1872       C  0.44750002  0.72315140  0.72196077    -0.04600
C1873       C  0.42258618  0.71030274  0.72023553    -0.00800
C1874       C  0.40930514  0.72183627  0.71282699    -0.03400
C1875       C  0.45737013  0.78467847  0.71194709     0.35900
C1876       C  0.41056701  0.68535123  0.72889296     0.39500
C1877       C  0.48448037  0.76122418  0.72128759     0.38600
C1878       C  0.38389890  0.70826318  0.70864455     0.35500
C1879       C  0.42092760  0.77142118  0.64478406     0.36200
C1880       C  0.36493622  0.76999347  0.75731364     0.39500
N1881       N  0.50485416  0.77211476  0.72337957    -0.38600
N1882       N  0.46689006  0.80484973  0.71103956    -0.40200
N1883       N  0.40115900  0.66558952  0.73700086    -0.37900
N1884       N  0.36364035  0.69733198  0.70523513    -0.40300
N1885       N  0.39161936  0.73697586  0.79137340    -0.40100
N1886       N  0.35256954  0.76836985  0.77963308    -0.37700
N1887       N  0.39942982  0.81040678  0.61456571    -0.38800
N1888       N  0.43180232  0.77126594  0.62168329    -0.40400
C1889       C  0.34227375  0.85663390  0.43137993    -0.05400
C1890       C  0.32232401  0.83966551  0.45066472     0.08800
C1891       C  0.30143756  0.82480889  0.43386227    -0.02800
C1892       C  0.30081856  0.82618895  0.39773810    -0.01000
C1893       C  0.32109812  0.84265941  0.37819059    -0.04600
C1894       C  0.34178063  0.85802231  0.39526687     0.02400
C1895       C  0.32338381  0.83770774  0.48886305     0.09200
C1896       C  0.28052517  0.80829989  0.45392250     0.35100
C1897       C  0.36309701  0.87438257  0.37589725     0.38600
C1898       C  0.31466744  0.84902907  0.50862838    -0.05000
C1899       C  0.31732594  0.84886175  0.54441779     0.02200
C1900       C  0.32904856  0.83752762  0.56086057    -0.04600
C1901       C  0.33658955  0.82503528  0.54105292    -0.00800
C1902       C  0.33373319  0.82515785  0.50513075    -0.03400
C1903       C  0.30290462  0.86089333  0.49200956     0.35900
C1904       C  0.34782400  0.81255791  0.55722173     0.39500
C1905       C  0.30725804  0.85989615  0.56420530     0.38600
C1906       C  0.34144734  0.81244302  0.48464630     0.35500
C1907       C  0.36333311  0.87270011  0.44887596     0.36200
C1908       C  0.27915093  0.81079658  0.38084593     0.39500
N1909       N  0.29910371  0.86874453  0.57959400    -0.38600
N1910       N  0.29338552  0.87023848  0.47886040    -0.40200
N1911       N  0.35668142  0.80242485  0.56991013    -0.37900
N1912       N  0.34743365  0.80230674  0.46800816    -0.40300
N1913       N  0.26384398  0.79534010  0.47010139    -0.40100
N1914       N  0.26175581  0.79848060  0.36762661    -0.37700
N1915       N  0.38031385  0.88738217  0.36083870    -0.38800
N1916       N  0.38004967  0.88555208  0.46293044    -0.40400
C1917       C  0.31742887  0.85148803  0.00975048    -0.05400
C1918       C  0.33049189  0.84522455  0.98851880     0.08800
C1919       C  0.34550720  0.83724092  0.00332098    -0.02800
C1920       C  0.34757789  0.83567617  0.03926692    -0.01000
C1921       C  0.33465195  0.84210535  0.06058933    -0.04600
C1922       C  0.31904011  0.84940182  0.04563601     0.02400
C1923       C  0.32828399  0.84680640  0.95045341     0.09200
C1924       C  0.35940219  0.83136031  0.98137725     0.35100
C1925       C  0.30399553  0.85413317  0.06712208     0.38600
C1926       C  0.34671491  0.86493513  0.93011888    -0.05000
C1927       C  0.34562344  0.86525617  0.89403798     0.02200
C1928       C  0.32530546  0.84819349  0.87804517    -0.04600
C1929       C  0.30619096  0.83088817  0.89876727    -0.00800
C1930       C  0.30802036  0.82980413  0.93473074    -0.03400
C1931       C  0.36700493  0.88303225  0.94655173     0.35900
C1932       C  0.28437268  0.81437160  0.88326103     0.39500
C1933       C  0.36616885  0.88224733  0.87379259     0.38600
C1934       C  0.28930038  0.81082218  0.95563227     0.35500
C1935       C  0.30283742  0.86074223  0.99462144     0.36200
C1936       C  0.36376177  0.82840518  0.05407934     0.39500
N1937       N  0.38292582  0.89577396  0.85826562    -0.38600
N1938       N  0.38306965  0.89738459  0.95994748    -0.40200
N1939       N  0.26690266  0.80126606  0.87099298    -0.37900
N1940       N  0.27447739  0.79564546  0.97238528    -0.40300
N1941       N  0.37065428  0.82698042  0.96370585    -0.40100
N1942       N  0.37683958  0.82271136  0.06566942    -0.37700
N1943       N  0.29179545  0.85776565  0.08401415    -0.38800
N1944       N  0.29131151  0.86829435  0.98272349    -0.40400
C1945       C  0.24734496  0.88968573  0.32397789    -0.05400
C1946       C  0.24550282  0.90772681  0.30491312     0.08800
C1947       C  0.25184417  0.91199391  0.26961954    -0.02800
C1948       C  0.26107569  0.89916499  0.25409387    -0.01000
C1949       C  0.26463006  0.88237843  0.27387965    -0.04600
C1950       C  0.25714847  0.87733064  0.30871977     0.02400
C1951       C  0.23747875  0.92249946  0.32253949     0.09200
C1952       C  0.24945358  0.93002100  0.24948355     0.35100
C1953       C  0.25973283  0.85948275  0.32902593     0.38600
C1954       C  0.25398481  0.94208795  0.33961929    -0.05000
C1955       C  0.24635516  0.95511217  0.35808185     0.02200
C1956       C  0.22206905  0.94867958  0.35985313    -0.04600
C1957       C  0.20560797  0.92927607  0.34223533    -0.00800
C1958       C  0.21325605  0.91614984  0.32404294    -0.03400
C1959       C  0.27880662  0.94837272  0.33905273     0.35900
C1960       C  0.18082864  0.92316763  0.34195459     0.39500
C1961       C  0.26339109  0.97463504  0.37648995     0.38600
C1962       C  0.19614851  0.89563360  0.30757169     0.35500
C1963       C  0.23936165  0.88408185  0.35955625     0.36200
C1964       C  0.26778181  0.90384650  0.21802007     0.39500
N1965       N  0.27675896  0.99020292  0.39140707    -0.38600
N1966       N  0.29857731  0.95322237  0.33871847    -0.40200
N1967       N  0.16106881  0.91835676  0.34153040    -0.37900
N1968       N  0.18263668  0.87910722  0.29458226    -0.40300
N1969       N  0.24761092  0.94442859  0.23330620    -0.40100
N1970       N  0.27301562  0.90741637  0.18917803    -0.37700
N1971       N  0.26176785  0.84523709  0.34529857    -0.38800
N1972       N  0.23281083  0.87965737  0.38787197    -0.40400
C1973       C  0.23886041  0.65241818  0.17663537    -0.05400
C1974       C  0.25373438  0.66181467  0.20483178     0.08800
C1975       C  0.25783227  0.64689960  0.22820850    -0.02800
C1976       C  0.24695018  0.62287997  0.22366050    -0.01000
C1977       C  0.23005109  0.61318468  0.19786389    -0.04600
C1978       C  0.22632540  0.62802009  0.17392747     0.02400
C1979       C  0.26483666  0.68728543  0.21049743     0.09200
C1980       C  0.27226849  0.65604459  0.25804417     0.35100
C1981       C  0.20908497  0.61809020  0.14730698     0.38600
C1982       C  0.25065469  0.69705358  0.21965750    -0.05000
C1983       C  0.26122308  0.72103465  0.22517712     0.02200
C1984       C  0.28609983  0.73503764  0.22372008    -0.04600
C1985       C  0.30026189  0.72502915  0.21582092    -0.00800
C1986       C  0.28969078  0.70149846  0.20816050    -0.03400
C1987       C  0.22516606  0.68241772  0.22330708     0.35900
C1988       C  0.32585265  0.73888637  0.21595493     0.39500
C1989       C  0.24646087  0.73151921  0.23045086     0.38600
C1990       C  0.30441182  0.69197345  0.19742103     0.35500
C1991       C  0.23610243  0.66784442  0.15096033     0.36200
C1992       C  0.25276616  0.60806188  0.24627204     0.39500
N1993       N  0.23459441  0.73985527  0.23420827    -0.38600
N1994       N  0.20483157  0.67066778  0.22610124    -0.40200
N1995       N  0.34628695  0.74959892  0.21642884    -0.37900
N1996       N  0.31613059  0.68435068  0.18894741    -0.40300
N1997       N  0.28371119  0.66334311  0.28186833    -0.40100
N1998       N  0.25804840  0.59669527  0.26420176    -0.37700
N1999       N  0.19528194  0.61011529  0.12610457    -0.38800
N2000       N  0.23403155  0.68029798  0.13057028    -0.40400
C2001       C  0.40796430  0.77028253  0.17437126    -0.05400
C2002       C  0.41786598  0.76825343  0.20602921     0.08800
C2003       C  0.41514914  0.77878229  0.23438553    -0.02800
C2004       C  0.40141260  0.78994224  0.23185548    -0.01000
C2005       C  0.39311208  0.79397583  0.19957828    -0.04600
C2006       C  0.39608749  0.78355684  0.17088025     0.02400
C2007       C  0.43042877  0.75430748  0.21060964     0.09200
C2008       C  0.42634046  0.77785884  0.26656473     0.35100
C2009       C  0.38647494  0.78570793  0.13804610     0.38600
C2010       C  0.45331119  0.76299784  0.19623411    -0.05000
C2011       C  0.46600868  0.75091549  0.20328867     0.02200
C2012       C  0.45594317  0.73012834  0.22501129    -0.04600
C2013       C  0.43325483  0.72171210  0.23998057    -0.00800
C2014       C  0.42035486  0.73349177  0.23224679    -0.03400
C2015       C  0.46378034  0.78440096  0.17415851     0.35900
C2016       C  0.42267778  0.70036241  0.26221046     0.39500
C2017       C  0.48964911  0.76021207  0.18862697     0.38600
C2018       C  0.39654929  0.72405643  0.24637849     0.35500
C2019       C  0.40992130  0.75855717  0.14553270     0.36200
C2020       C  0.39342476  0.79437448  0.26352617     0.39500
N2021       N  0.50848805  0.76789479  0.17676011    -0.38600
N2022       N  0.47197247  0.80133997  0.15627099    -0.40200
N2023       N  0.41411557  0.68327534  0.27977313    -0.37900
N2024       N  0.37760844  0.71650173  0.25780584    -0.40300
N2025       N  0.43536086  0.77707801  0.29204097    -0.40100
N2026       N  0.38671225  0.79676297  0.28937595    -0.37700
N2027       N  0.37872084  0.78679335  0.11156813    -0.38800
N2028       N  0.41161477  0.74920309  0.12262028    -0.40400
C2029       C  0.61801569  0.64955780  0.66926522    -0.05400
C2030       C  0.60850043  0.62515868  0.67452365     0.08800
C2031       C  0.58984702  0.61259227  0.69896869    -0.02800
C2032       C  0.57997564  0.62406556  0.71655366    -0.01000
C2033       C  0.58871791  0.64832518  0.71000689    -0.04600
C2034       C  0.60853483  0.66111882  0.68739046     0.02400
C2035       C  0.61763062  0.61246110  0.65394709     0.09200
C2036       C  0.58000136  0.58753960  0.70470475     0.35100
C2037       C  0.61904345  0.68629198  0.68230017     0.38600
C2038       C  0.63975939  0.61393537  0.66118061    -0.05000
C2039       C  0.64699570  0.60003951  0.64443039     0.02200
C2040       C  0.63160821  0.58335958  0.62202176    -0.04600
C2041       C  0.61029523  0.58307198  0.61284232    -0.00800
C2042       C  0.60364034  0.59801811  0.62811043    -0.03400
C2043       C  0.65461444  0.62880447  0.68717518     0.35900
C2044       C  0.59471477  0.56663977  0.58904900     0.39500
C2045       C  0.67021878  0.60246804  0.65085131     0.38600
C2046       C  0.58211885  0.59824865  0.61791703     0.35500
C2047       C  0.63660203  0.66260990  0.64355269     0.36200
C2048       C  0.55969920  0.61054268  0.73952071     0.39500
N2049       N  0.68885255  0.60461527  0.65564212    -0.38600
N2050       N  0.66659125  0.64052299  0.70796413    -0.40200
N2051       N  0.58226932  0.55351840  0.57001535    -0.37900
N2052       N  0.56506620  0.59872514  0.60986117    -0.40300
N2053       N  0.57208370  0.56751958  0.70883652    -0.40100
N2054       N  0.54349287  0.59979175  0.75781400    -0.37700
N2055       N  0.62762396  0.70638970  0.67832120    -0.38800
N2056       N  0.65128265  0.67305908  0.62283759    -0.40400
C2057       C  0.70846528  0.64433157  0.51502884    -0.05400
C2058       C  0.73276072  0.66034979  0.51816295     0.08800
C2059       C  0.74698466  0.65301172  0.53723832    -0.02800
C2060       C  0.73736438  0.62970579  0.55168594    -0.01000
C2061       C  0.71304843  0.61324809  0.54788085    -0.04600
C2062       C  0.69866178  0.62107006  0.52957976     0.02400
C2063       C  0.74360913  0.68476143  0.50063798     0.09200
C2064       C  0.77164745  0.66973030  0.54243738     0.35100
C2065       C  0.67349496  0.60550121  0.52575699     0.38600
C2066       C  0.73912419  0.70188716  0.51319736    -0.05000
C2067       C  0.75053251  0.72499927  0.49792864     0.02200
C2068       C  0.76718126  0.73163760  0.47046703    -0.04600
C2069       C  0.77039417  0.71413667  0.45639767    -0.00800
C2070       C  0.75852042  0.69083745  0.47122600    -0.03400
C2071       C  0.72277958  0.69580529  0.54197351     0.35900
C2072       C  0.78634311  0.72008237  0.42723502     0.39500
C2073       C  0.74455800  0.74188652  0.50997687     0.38600
C2074       C  0.76151643  0.67293062  0.45611570     0.35500
C2075       C  0.69338956  0.65190279  0.49689235     0.36200
C2076       C  0.75292793  0.62270852  0.56956416     0.39500
N2077       N  0.73946667  0.75517044  0.51939602    -0.38600
N2078       N  0.70953715  0.69100353  0.56464534    -0.40200
N2079       N  0.79891990  0.72456604  0.40380636    -0.37900
N2080       N  0.76371063  0.65851454  0.44407001    -0.40300
N2081       N  0.79128455  0.68316445  0.54665886    -0.40100
N2082       N  0.76541037  0.61721235  0.58386353    -0.37700
N2083       N  0.65344080  0.59329058  0.52220097    -0.38800
N2084       N  0.68133807  0.65807056  0.48285485    -0.40400
C2085       C  0.64394440  0.48282359  0.90871188    -0.05400
C2086       C  0.65149416  0.50178355  0.88396249     0.08800
C2087       C  0.66003216  0.52452806  0.89474187    -0.02800
C2088       C  0.66198433  0.52843401  0.93004395    -0.01000
C2089       C  0.65626285  0.50971267  0.95485001    -0.04600
C2090       C  0.64637630  0.48673537  0.94392988     0.02400
C2091       C  0.65089306  0.49796139  0.84645810     0.09200
C2092       C  0.66715630  0.54396537  0.86927241     0.35100
C2093       C  0.63790057  0.46681042  0.96879153     0.38600
C2094       C  0.62925612  0.48828828  0.82895477    -0.05000
C2095       C  0.62903419  0.48625670  0.79319619     0.02200
C2096       C  0.65046797  0.49393637  0.77463407    -0.04600
C2097       C  0.67202551  0.50279389  0.79244777    -0.00800
C2098       C  0.67218630  0.50463944  0.82823666    -0.03400
C2099       C  0.60726519  0.48064486  0.84782950     0.35900
C2100       C  0.69424303  0.51123280  0.77377284     0.39500
C2101       C  0.60669742  0.47604783  0.77549652     0.38600
C2102       C  0.69432385  0.51377175  0.84645318     0.35500
C2103       C  0.63369122  0.45922670  0.89789498     0.36200
C2104       C  0.67000788  0.55173940  0.94061774     0.39500
N2105       N  0.58889049  0.46783121  0.76132980    -0.38600
N2106       N  0.58982812  0.47440656  0.86325917    -0.40200
N2107       N  0.71202076  0.51810940  0.75894651    -0.37900
N2108       N  0.71185108  0.52107283  0.86130043    -0.40300
N2109       N  0.67295395  0.55935053  0.84869527    -0.40100
N2110       N  0.67596076  0.57031836  0.94884501    -0.37700
N2111       N  0.63081189  0.45052615  0.98791906    -0.38800
N2112       N  0.62520863  0.44038783  0.88930019    -0.40400
C2113       C  0.63740062  0.49211196  0.32965947    -0.05400
C2114       C  0.65941970  0.49984626  0.34573919     0.08800
C2115       C  0.67951107  0.50443637  0.32597657    -0.02800
C2116       C  0.67778851  0.50214645  0.29016555    -0.01000
C2117       C  0.65581754  0.49486455  0.27380382    -0.04600
C2118       C  0.63562052  0.48985705  0.29389749     0.02400
C2119       C  0.66118136  0.50294919  0.38361025     0.09200
C2120       C  0.70205769  0.51177476  0.34247539     0.35100
C2121       C  0.61297937  0.48277768  0.27779636     0.38600
C2122       C  0.65381447  0.48334817  0.40713051    -0.05000
C2123       C  0.65394937  0.48581162  0.44270127     0.02200
C2124       C  0.66213175  0.50813166  0.45531075    -0.04600
C2125       C  0.66929089  0.52774381  0.43169935    -0.00800
C2126       C  0.66895802  0.52517261  0.39602295    -0.03400
C2127       C  0.64631821  0.46056591  0.39465916     0.35900
C2128       C  0.67759749  0.55067136  0.44417121     0.39500
C2129       C  0.64478504  0.46505296  0.46609788     0.38600
C2130       C  0.67707791  0.54550575  0.37207327     0.35500
C2131       C  0.61653397  0.48658656  0.35008336     0.36200
C2132       C  0.69907294  0.50912647  0.26982673     0.39500
N2133       N  0.63728575  0.44827422  0.48428457    -0.38600
N2134       N  0.64043148  0.44237345  0.38488347    -0.40200
N2135       N  0.68405316  0.56878325  0.45464466    -0.37900
N2136       N  0.68379898  0.56185416  0.35311600    -0.40300
N2137       N  0.72009596  0.51760860  0.35549788    -0.40100
N2138       N  0.71606279  0.51496951  0.25347659    -0.37700
N2139       N  0.59491716  0.47736936  0.26508177    -0.38800
N2140       N  0.59993196  0.48205697  0.36655541    -0.40400
C2141       C  0.61997526  0.64982087  0.17874540    -0.05400
C2142       C  0.60998962  0.62541164  0.17878108     0.08800
C2143       C  0.58940248  0.61062886  0.19889302    -0.02800
C2144       C  0.57829583  0.62026562  0.21769320    -0.01000
C2145       C  0.58780501  0.64468551  0.21660556    -0.04600
C2146       C  0.60904907  0.65941526  0.19791875     0.02400
C2147       C  0.62140917  0.61511225  0.15836234     0.09200
C2148       C  0.57894071  0.58547877  0.19868822     0.35100
C2149       C  0.61851929  0.68448788  0.19612784     0.38600
C2150       C  0.64209783  0.61530634  0.17046438    -0.05000
C2151       C  0.65047159  0.60195735  0.15518260     0.02200
C2152       C  0.63801813  0.58811292  0.12789906    -0.04600
C2153       C  0.61902339  0.59015702  0.11318866    -0.00800
C2154       C  0.61072906  0.60371886  0.12844231    -0.03400
C2155       C  0.65408119  0.62829749  0.19980526     0.35900
C2156       C  0.60694513  0.57702585  0.08409097     0.39500
C2157       C  0.67119109  0.60145800  0.16900668     0.38600
C2158       C  0.59060288  0.60518896  0.11435137     0.35500
C2159       C  0.64063352  0.66499129  0.15724156     0.36200
C2160       C  0.55587888  0.60507724  0.23556091     0.39500
N2161       N  0.68759247  0.60111319  0.18058550    -0.38600
N2162       N  0.66371727  0.63879246  0.22303512    -0.40200
N2163       N  0.59729508  0.56660251  0.06081213    -0.37900
N2164       N  0.57453605  0.60638316  0.10316264    -0.40300
N2165       N  0.57050784  0.56543659  0.19812802    -0.40100
N2166       N  0.53792274  0.59305837  0.24963822    -0.37700
N2167       N  0.62599418  0.70447728  0.19451197    -0.38800
N2168       N  0.65705130  0.67704298  0.13994882    -0.40400
C2169       C  0.73873556  0.69116267  0.97598740    -0.05400
C2170       C  0.75353859  0.68133591  0.98393501     0.08800
C2171       C  0.77768667  0.69400702  0.97364980    -0.02800
C2172       C  0.78719678  0.71678023  0.95762381    -0.01000
C2173       C  0.77283501  0.72734799  0.95230139    -0.04600
C2174       C  0.74842370  0.71422990  0.96076152     0.02400
C2175       C  0.74384949  0.65788197  0.00371295     0.09200
C2176       C  0.79301807  0.68398695  0.98071746     0.35100
C2177       C  0.73366395  0.72507241  0.95580659     0.38600
C2178       C  0.73771202  0.63762769  0.98644304    -0.05000
C2179       C  0.72897653  0.61569025  0.00503512     0.02200
C2180       C  0.72494454  0.61348135  0.04093522    -0.04600
C2181       C  0.73186544  0.63387236  0.05836032    -0.00800
C2182       C  0.74126844  0.65593462  0.03986631    -0.03400
C2183       C  0.73987818  0.63939153  0.94936333     0.35900
C2184       C  0.72912104  0.63223559  0.09533518     0.39500
C2185       C  0.72563889  0.59560065  0.98762542     0.38600
C2186       C  0.74792844  0.67660848  0.05814293     0.35500
C2187       C  0.71361929  0.67764279  0.98423876     0.36200
C2188       C  0.81214749  0.72990426  0.94792490     0.39500
N2189       N  0.72356951  0.57964443  0.97409048    -0.38600
N2190       N  0.74150680  0.64105986  0.91974055    -0.40200
N2191       N  0.72725894  0.63117880  0.12487844    -0.37900
N2192       N  0.75309583  0.69292312  0.07312576    -0.40300
N2193       N  0.80540038  0.67614270  0.98625412    -0.40100
N2194       N  0.83201674  0.74046801  0.94006725    -0.37700
N2195       N  0.72207065  0.73394368  0.95195112    -0.38800
N2196       N  0.69355990  0.66668433  0.99074314    -0.40400
C2197       C  0.58003494  0.30766813  0.65327038    -0.05400
C2198       C  0.57639945  0.32354947  0.63171279     0.08800
C2199       C  0.56250304  0.31564464  0.60228695    -0.02800
C2200       C  0.55239025  0.29195184  0.59431753    -0.01000
C2201       C  0.55569564  0.27565776  0.61622806    -0.04600
C2202       C  0.57016133  0.28410889  0.64553942     0.02400
C2203       C  0.58901600  0.34904990  0.63859545     0.09200
C2204       C  0.55849367  0.33206304  0.58045145     0.35100
C2205       C  0.57615137  0.26909898  0.66744326     0.38600
C2206       C  0.61112696  0.36424207  0.62238804    -0.05000
C2207       C  0.62267528  0.38837641  0.62723069     0.02200
C2208       C  0.61259483  0.39752019  0.64929178    -0.04600
C2209       C  0.59123049  0.38208925  0.66720795    -0.00800
C2210       C  0.57944364  0.35794416  0.66185663    -0.03400
C2211       C  0.62184634  0.35495523  0.60031584     0.35900
C2212       C  0.58119825  0.39133782  0.69046791     0.39500
C2213       C  0.64422637  0.40387723  0.60771332     0.38600
C2214       C  0.55725437  0.34227038  0.67973710     0.35500
C2215       C  0.59431403  0.31580843  0.68352054     0.36200
C2216       C  0.53871091  0.28463689  0.56348589     0.39500
N2217       N  0.66133457  0.41585648  0.59171043    -0.38600
N2218       N  0.63035701  0.34741172  0.58290574    -0.40200
N2219       N  0.57350049  0.39904534  0.70898789    -0.37900
N2220       N  0.53953856  0.32965651  0.69398558    -0.40300
N2221       N  0.55537353  0.34536960  0.56342015    -0.40100
N2222       N  0.52806477  0.27906539  0.53857245    -0.37700
N2223       N  0.58122054  0.25751683  0.68528027    -0.38800
N2224       N  0.60563101  0.32240563  0.70764859    -0.40400
C2225       C  0.36421085  0.97639019  0.64172946    -0.05400
C2226       C  0.38337328  0.99425363  0.65797905     0.08800
C2227       C  0.38831722  0.99021763  0.69229845    -0.02800
C2228       C  0.37667235  0.96744284  0.70837836    -0.01000
C2229       C  0.35951762  0.94881738  0.69034716    -0.04600
C2230       C  0.35172366  0.95393783  0.65842377     0.02400
C2231       C  0.39962133  0.01662536  0.63815649     0.09200
C2232       C  0.40607364  0.00940257  0.71052825     0.35100
C2233       C  0.33103541  0.93600916  0.64244168     0.38600
C2234       C  0.39289697  0.03382688  0.63073316    -0.05000
C2235       C  0.40905817  0.05543051  0.61388630     0.02200
C2236       C  0.43235414  0.06029151  0.60609552    -0.04600
C2237       C  0.43877437  0.04281562  0.61249021    -0.00800
C2238       C  0.42222729  0.02079409  0.62755616    -0.03400
C2239       C  0.36995144  0.02983768  0.64239879     0.35900
C2240       C  0.46307421  0.04828059  0.60628111     0.39500
C2241       C  0.40225101  0.07325825  0.60686475     0.38600
C2242       C  0.42880227  0.00272343  0.63351042     0.35500
C2243       C  0.35820123  0.98082262  0.60713279     0.36200
C2244       C  0.38343989  0.96332190  0.74254664     0.39500
N2245       N  0.39653216  0.08727216  0.60133478    -0.38600
N2246       N  0.35170677  0.02669699  0.65192445    -0.40200
N2247       N  0.48259333  0.05299558  0.60172380    -0.37900
N2248       N  0.43405131  0.98830967  0.63823132    -0.40300
N2249       N  0.42011885  0.02468553  0.72523423    -0.40100
N2250       N  0.38917163  0.96071181  0.76993988    -0.37700
N2251       N  0.31443493  0.92189567  0.62964825    -0.38800
N2252       N  0.35351888  0.98448663  0.57953328    -0.40400
C2253       C  0.36563873  0.10864307  0.50734908    -0.05400
C2254       C  0.36242484  0.09097176  0.48588385     0.08800
C2255       C  0.38121337  0.08640451  0.48102726    -0.02800
C2256       C  0.40220778  0.09774858  0.49984284    -0.01000
C2257       C  0.40596316  0.11604394  0.52115180    -0.04600
C2258       C  0.38747755  0.12170510  0.52371271     0.02400
C2259       C  0.33898082  0.07669622  0.46919053     0.09200
C2260       C  0.37898311  0.07014902  0.45602259     0.35100
C2261       C  0.39067737  0.14120226  0.54258659     0.38600
C2262       C  0.33074290  0.08716729  0.44369075    -0.05000
C2263       C  0.30735555  0.07471072  0.43177252     0.02200
C2264       C  0.29259221  0.05118971  0.44359935    -0.04600
C2265       C  0.30170608  0.03999824  0.46628449    -0.00800
C2266       C  0.32450750  0.05281650  0.47981608    -0.03400
C2267       C  0.34615970  0.11104047  0.43052831     0.35900
C2268       C  0.28708742  0.01537014  0.47668621     0.39500
C2269       C  0.29792549  0.08671290  0.40968207     0.38600
C2270       C  0.33250812  0.04165896  0.50598769     0.35500
C2271       C  0.34628543  0.11336195  0.51274765     0.36200
C2272       C  0.41917283  0.08943688  0.49781954     0.39500
N2273       N  0.29045007  0.09648383  0.39237388    -0.38600
N2274       N  0.35854670  0.13010066  0.42012384    -0.40200
N2275       N  0.27530218  0.99572618  0.48470430    -0.37900
N2276       N  0.33877188  0.03265432  0.52686828    -0.40300
N2277       N  0.37715936  0.05737131  0.43579500    -0.40100
N2278       N  0.43235736  0.08241130  0.49597833    -0.37700
N2279       N  0.39301265  0.15676458  0.55745492    -0.38800
N2280       N  0.33084902  0.11714141  0.51687852    -0.40400
C2281       C  0.47969640  0.14839357  0.81652587    -0.05400
C2282       C  0.50050022  0.15860189  0.83580231     0.08800
C2283       C  0.52280514  0.16790808  0.81929781    -0.02800
C2284       C  0.52441218  0.16788683  0.78339951    -0.01000
C2285       C  0.50362577  0.15798229  0.76378581    -0.04600
C2286       C  0.48120546  0.14810192  0.78061385     0.02400
C2287       C  0.49904835  0.16087085  0.87330795     0.09200
C2288       C  0.54414636  0.17772916  0.83937809     0.35100
C2289       C  0.45966966  0.13904992  0.76098214     0.38600
C2290       C  0.50057512  0.14479350  0.89746953    -0.05000
C2291       C  0.50021668  0.14761596  0.93283862     0.02200
C2292       C  0.49702327  0.16586221  0.94431376    -0.04600
C2293       C  0.49565824  0.18205357  0.91986433    -0.00800
C2294       C  0.49717315  0.17980069  0.88454596    -0.03400
C2295       C  0.50313076  0.12569599  0.88575603     0.35900
C2296       C  0.49250733  0.20099251  0.93079469     0.39500
C2297       C  0.50503336  0.13285499  0.95715909     0.38600
C2298       C  0.49749977  0.19735408  0.85962912     0.35500
C2299       C  0.45674928  0.13853606  0.83373779     0.36200
C2300       C  0.54756937  0.17836689  0.76677861     0.39500
N2301       N  0.50936099  0.12137437  0.97643807    -0.38600
N2302       N  0.50521891  0.11052931  0.87623996    -0.40200
N2303       N  0.49007244  0.21617398  0.93937469    -0.37900
N2304       N  0.49804259  0.21147509  0.83973729    -0.40300
N2305       N  0.56113390  0.18540312  0.85547256    -0.40100
N2306       N  0.56616859  0.18704121  0.75382523    -0.37700
N2307       N  0.44231521  0.13197194  0.74574511    -0.38800
N2308       N  0.43848321  0.13067854  0.84755390    -0.40400
C2309       C  0.50596056  0.19418589  0.31302243    -0.05400
C2310       C  0.51375671  0.18051542  0.33259851     0.08800
C2311       C  0.52064574  0.16625347  0.31630354    -0.02800
C2312       C  0.51941697  0.16539050  0.28043826    -0.01000
C2313       C  0.51130011  0.17883699  0.26083923    -0.04600
C2314       C  0.50451529  0.19320556  0.27721179     0.02400
C2315       C  0.51245188  0.17938095  0.37067522     0.09200
C2316       C  0.52826628  0.15193289  0.33667344     0.35100
C2317       C  0.49435240  0.20563556  0.25771922     0.38600
C2318       C  0.49023731  0.16620881  0.38756493    -0.05000
C2319       C  0.48864298  0.16494703  0.42349321     0.02200
C2320       C  0.50933056  0.17650898  0.44284810    -0.04600
C2321       C  0.53167961  0.18934504  0.42590426    -0.00800
C2322       C  0.53317979  0.19102539  0.38978477    -0.03400
C2323       C  0.46895293  0.15385689  0.36787860     0.35900
C2324       C  0.55319802  0.19973325  0.44553610     0.39500
C2325       C  0.46553806  0.15204089  0.44037818     0.38600
C2326       C  0.55598346  0.20454912  0.37217050     0.35500
C2327       C  0.49850847  0.20852278  0.33001408     0.36200
C2328       C  0.52623297  0.15045660  0.26378841     0.39500
N2329       N  0.44700041  0.14171696  0.45349714    -0.38600
N2330       N  0.45196141  0.14405830  0.35223975    -0.40200
N2331       N  0.57044817  0.20781418  0.46104204    -0.37900
N2332       N  0.57411591  0.21526927  0.35795986    -0.40300
N2333       N  0.53434087  0.14058949  0.35313761    -0.40100
N2334       N  0.53155028  0.13844540  0.25056547    -0.37700
N2335       N  0.48589980  0.21540881  0.24270662    -0.38800
N2336       N  0.49239581  0.21977302  0.34369036    -0.40400
C2337       C  0.58717686  0.31492422  0.12716201    -0.05400
C2338       C  0.58121986  0.33002767  0.10770495     0.08800
C2339       C  0.56649846  0.32187752  0.07908725    -0.02800
C2340       C  0.55619998  0.29814167  0.07167110    -0.01000
C2341       C  0.56135639  0.28264082  0.09211133    -0.04600
C2342       C  0.57824533  0.29177866  0.11850400     0.02400
C2343       C  0.59105116  0.35463825  0.11742511     0.09200
C2344       C  0.56163392  0.33789037  0.05774031     0.35100
C2345       C  0.58664547  0.27752519  0.13730687     0.38600
C2346       C  0.61545248  0.37046337  0.11254055    -0.05000
C2347       C  0.62528875  0.39308703  0.12402241     0.02200
C2348       C  0.61059938  0.40057484  0.13895663    -0.04600
C2349       C  0.58613986  0.38466236  0.14395452    -0.00800
C2350       C  0.57649473  0.36165284  0.13379301    -0.03400
C2351       C  0.63035204  0.36357213  0.09479699     0.35900
C2352       C  0.57084719  0.39208822  0.15921668     0.39500
C2353       C  0.65042241  0.40894622  0.11868087     0.38600
C2354       C  0.55155927  0.34520846  0.13998450     0.35500
C2355       C  0.60196588  0.32304616  0.15701631     0.36200
C2356       C  0.53949572  0.28962193  0.04414443     0.39500
N2357       N  0.67053946  0.42130316  0.11448549    -0.38600
N2358       N  0.64215423  0.35801477  0.08061204    -0.40200
N2359       N  0.55865677  0.39805863  0.17127839    -0.37900
N2360       N  0.53165286  0.33208288  0.14488742    -0.40300
N2361       N  0.55783261  0.35075838  0.04077089    -0.40100
N2362       N  0.52614365  0.28296695  0.02212422    -0.37700
N2363       N  0.59380820  0.26679314  0.15290748    -0.38800
N2364       N  0.61366329  0.32954475  0.18083368    -0.40400
C2365       C  0.39186656  0.03833630  0.16594898    -0.05400
C2366       C  0.39698350  0.02101279  0.15646442     0.08800
C2367       C  0.41520712  0.02666968  0.13208017    -0.02800
C2368       C  0.42889006  0.04983133  0.11812991    -0.01000
C2369       C  0.42464349  0.06745297  0.12906418    -0.04600
C2370       C  0.40575334  0.06154287  0.15251731     0.02400
C2371       C  0.38346743  0.99678397  0.17262880     0.09200
C2372       C  0.42047508  0.00878557  0.12244212     0.35100
C2373       C  0.40096014  0.07945039  0.16365206     0.38600
C2374       C  0.36369121  0.97984325  0.15611108    -0.05000
C2375       C  0.35254573  0.95639591  0.16923769     0.02200
C2376       C  0.36126834  0.94970306  0.19889996    -0.04600
C2377       C  0.37970648  0.96713158  0.21718942    -0.00800
C2378       C  0.39097384  0.99060514  0.20378063    -0.03400
C2379       C  0.35547890  0.98647435  0.12478127     0.35900
C2380       C  0.38811297  0.96099556  0.24868236     0.39500
C2381       C  0.33237850  0.93901780  0.15165400     0.38600
C2382       C  0.41113424  0.00826458  0.22101075     0.35500
C2383       C  0.37271279  0.03234521  0.19030099     0.36200
C2384       C  0.44830316  0.05572994  0.09433203     0.39500
N2385       N  0.31637169  0.92516231  0.13751493    -0.38600
N2386       N  0.34905343  0.99185232  0.09974783    -0.40200
N2387       N  0.39509553  0.95664029  0.27399405    -0.37900
N2388       N  0.42730086  0.02234066  0.23461438    -0.40300
N2389       N  0.42474868  0.99454162  0.11485236    -0.40100
N2390       N  0.46378681  0.06032706  0.07539702    -0.37700
N2391       N  0.39709236  0.09360989  0.17286870    -0.38800
N2392       N  0.35744747  0.02759451  0.20973597    -0.40400
C2393       C  0.37746203  0.11392563  0.97414985    -0.05400
C2394       C  0.35522376  0.10373630  0.99090405     0.08800
C2395       C  0.35387432  0.10750949  0.02574454    -0.02800
C2396       C  0.37478897  0.12070167  0.04415067    -0.01000
C2397       C  0.39731626  0.12986071  0.02794649    -0.04600
C2398       C  0.39838435  0.12662791  0.99250235     0.02400
C2399       C  0.33326465  0.08812791  0.97215570     0.09200
C2400       C  0.33085020  0.09725397  0.04276487     0.35100
C2401       C  0.42101415  0.13609572  0.97454082     0.38600
C2402       C  0.32469233  0.06380476  0.97401721    -0.05000
C2403       C  0.30283852  0.04881709  0.95926184     0.02200
C2404       C  0.28950307  0.05805942  0.94231428    -0.04600
C2405       C  0.29918264  0.08253745  0.93773800    -0.00800
C2406       C  0.32098294  0.09752316  0.95266400    -0.03400
C2407       C  0.33807603  0.05417611  0.99201829     0.35900
C2408       C  0.28589990  0.09226501  0.91966627     0.39500
C2409       C  0.29361138  0.02377552  0.96258197     0.38600
C2410       C  0.33037683  0.12258068  0.94906560     0.35500
C2411       C  0.37868177  0.11097882  0.93790851     0.36200
C2412       C  0.37299963  0.12371200  0.08015318     0.39500
N2413       N  0.28642992  0.00381711  0.96517959    -0.38600
N2414       N  0.34879834  0.04651196  0.00631039    -0.40200
N2415       N  0.27535972  0.10009146  0.90525645    -0.37900
N2416       N  0.33788774  0.14258309  0.94611860    -0.40300
N2417       N  0.31239060  0.08895499  0.05611474    -0.40100
N2418       N  0.37136574  0.12606023  0.10887071    -0.37700
N2419       N  0.43884544  0.14329947  0.95974910    -0.38800
N2420       N  0.37935960  0.10861632  0.90896293    -0.40400
C2421       C  0.90284094  0.26923167  0.52801955    -0.05400
C2422       C  0.92086366  0.26672122  0.54536998     0.08800
C2423       C  0.92673595  0.27442401  0.57883424    -0.02800
C2424       C  0.91548827  0.28552037  0.59408692    -0.01000
C2425       C  0.89734190  0.28784990  0.57671662    -0.04600
C2426       C  0.89069494  0.27908152  0.54400747     0.02400
C2427       C  0.93308125  0.25528532  0.52870933     0.09200
C2428       C  0.94409023  0.27051871  0.59769570     0.35100
C2429       C  0.87059319  0.27932158  0.52741398     0.38600
C2430       C  0.95497551  0.26889416  0.51091882    -0.05000
C2431       C  0.96606954  0.25803527  0.49461106     0.02200
C2432       C  0.95545915  0.23334737  0.49616118    -0.04600
C2433       C  0.93385750  0.21983972  0.51480904    -0.00800
C2434       C  0.92263917  0.23072629  0.53059322    -0.03400
C2435       C  0.96615674  0.29414681  0.50957583     0.35900
C2436       C  0.92386152  0.19473477  0.51960155     0.39500
C2437       C  0.98830465  0.27240013  0.47590447     0.38600
C2438       C  0.90043364  0.21665161  0.54940782     0.35500
C2439       C  0.89677866  0.26167005  0.49358377     0.36200
C2440       C  0.92308291  0.29514477  0.62713306     0.39500
N2441       N  0.00604090  0.28406713  0.46108521    -0.38600
N2442       N  0.97515559  0.31429797  0.50862579    -0.40200
N2443       N  0.91607014  0.17473266  0.52374341    -0.37900
N2444       N  0.88269993  0.20550335  0.56444694    -0.40300
N2445       N  0.95776569  0.26707855  0.61269293    -0.40100
N2446       N  0.92936454  0.30303074  0.65334718    -0.37700
N2447       N  0.85431316  0.27924982  0.51460425    -0.38800
N2448       N  0.89196764  0.25576628  0.46601785    -0.40400
C2449       C  0.74855125  0.39221525  0.62974193    -0.05400
C2450       C  0.75600631  0.41321677  0.64562527     0.08800
C2451       C  0.77554429  0.42131204  0.66760734    -0.02800
C2452       C  0.78823721  0.40898200  0.67246380    -0.01000
C2453       C  0.78141293  0.38850187  0.65542706    -0.04600
C2454       C  0.76120366  0.37988505  0.63460222     0.02400
C2455       C  0.74293453  0.42658627  0.63951393     0.09200
C2456       C  0.78281204  0.44263303  0.68449155     0.35100
C2457       C  0.75387549  0.35879970  0.61702138     0.38600
C2458       C  0.72200390  0.41992259  0.65841328    -0.05000
C2459       C  0.70928414  0.43208434  0.65245736     0.02200
C2460       C  0.71750084  0.45127452  0.62746796    -0.04600
C2461       C  0.73826090  0.45753078  0.60796636    -0.00800
C2462       C  0.75099966  0.44533260  0.61419432    -0.03400
C2463       C  0.71344366  0.40028468  0.68390160     0.35900
C2464       C  0.74682917  0.47670184  0.58178338     0.39500
C2465       C  0.68717302  0.42388631  0.67132528     0.38600
C2466       C  0.77247775  0.45207804  0.59452939     0.35500
C2467       C  0.72826304  0.38373982  0.60749215     0.36200
C2468       C  0.80874671  0.41762108  0.69420896     0.39500
N2469       N  0.66959395  0.41668731  0.68679487    -0.38600
N2470       N  0.70659332  0.38457709  0.70410371    -0.40200
N2471       N  0.75368882  0.49185625  0.56065275    -0.37900
N2472       N  0.78963836  0.45757732  0.57881009    -0.40300
N2473       N  0.78843830  0.45970582  0.69773284    -0.40100
N2474       N  0.82510971  0.42430870  0.71157448    -0.37700
N2475       N  0.74766479  0.34195279  0.60290204    -0.38800
N2476       N  0.71209051  0.37707162  0.58974833    -0.40400
C2477       C  0.69773754  0.27813546  0.66605390    -0.05400
C2478       C  0.68461265  0.25731169  0.64970486     0.08800
C2479       C  0.69631620  0.24905447  0.62924377    -0.02800
C2480       C  0.72114026  0.26196978  0.62438785    -0.01000
C2481       C  0.73443231  0.28300299  0.64063901    -0.04600
C2482       C  0.72249834  0.29088340  0.66179614     0.02400
C2483       C  0.65825080  0.24498797  0.65229121     0.09200
C2484       C  0.68274677  0.22723463  0.61318281     0.35100
C2485       C  0.73528773  0.31248154  0.67873530     0.38600
C2486       C  0.64565211  0.25353099  0.63183842    -0.05000
C2487       C  0.62074854  0.24194019  0.63367868     0.02200
C2488       C  0.60828671  0.22137107  0.65537478    -0.04600
C2489       C  0.62094438  0.21298463  0.67611924    -0.00800
C2490       C  0.64592702  0.22495276  0.67488353    -0.03400
C2491       C  0.65838152  0.27353155  0.60748397     0.35900
C2492       C  0.60823419  0.19140184  0.69737801     0.39500
C2493       C  0.60797893  0.25027846  0.61125466     0.38600
C2494       C  0.65900021  0.21613553  0.69561118     0.35500
C2495       C  0.68568121  0.28668310  0.68703045     0.36200
C2496       C  0.73288806  0.25322677  0.60328372     0.39500
N2497       N  0.59805547  0.25712451  0.59319243    -0.38600
N2498       N  0.66865997  0.28936750  0.58796283    -0.40200
N2499       N  0.59815795  0.17409260  0.71418978    -0.37900
N2500       N  0.66953462  0.20908657  0.71187640    -0.40300
N2501       N  0.67196820  0.20973563  0.60058380    -0.40100
N2502       N  0.74207471  0.24612748  0.58631300    -0.37700
N2503       N  0.74486904  0.32951983  0.69276885    -0.38800
N2504       N  0.67634510  0.29378816  0.70369589    -0.40400
C2505       C  0.99358862  0.39930857  0.64427749    -0.05400
C2506       C  0.99953522  0.41715165  0.66707497     0.08800
C2507       C  0.98400541  0.42624996  0.67083359    -0.02800
C2508       C  0.96313889  0.41780823  0.65210323    -0.01000
C2509       C  0.95536063  0.39754895  0.63407533    -0.04600
C2510       C  0.97104754  0.38885024  0.62889446     0.02400
C2511       C  0.02224124  0.42732091  0.68648943     0.09200
C2512       C  0.98878325  0.44351993  0.69541345     0.35100
C2513       C  0.96363666  0.36865985  0.60913510     0.38600
C2514       C  0.03833583  0.45148782  0.68146892    -0.05000
C2515       C  0.05740158  0.46216069  0.70354120     0.02200
C2516       C  0.06351093  0.44837820  0.72614644    -0.04600
C2517       C  0.04791922  0.42421827  0.73108357    -0.00800
C2518       C  0.02661873  0.41388453  0.71259903    -0.03400
C2519       C  0.03577775  0.46533718  0.65287726     0.35900
C2520       C  0.05443516  0.41000972  0.75378548     0.39500
C2521       C  0.07156345  0.48744976  0.70213502     0.38600
C2522       C  0.00942167  0.38955606  0.72040913     0.35500
C2523       C  0.01034780  0.39147349  0.63700802     0.36200
C2524       C  0.94901943  0.42945638  0.65250170     0.39500
N2525       N  0.08278714  0.50757480  0.70157136    -0.38600
N2526       N  0.03388039  0.47638306  0.62997456    -0.40200
N2527       N  0.05993999  0.39886615  0.77183420    -0.37900
N2528       N  0.99574005  0.37013750  0.72695236    -0.40300
N2529       N  0.99264550  0.45725001  0.71505664    -0.40100
N2530       N  0.93800655  0.43898588  0.65256213    -0.37700
N2531       N  0.95771030  0.35256708  0.59329566    -0.38800
N2532       N  0.02359001  0.38511418  0.63080958    -0.40400
C2533       C  0.83124060  0.32798700  0.91786814    -0.05400
C2534       C  0.84753735  0.34868631  0.89925391     0.08800
C2535       C  0.86517003  0.36727775  0.91669158    -0.02800
C2536       C  0.86642059  0.36516797  0.95280032    -0.01000
C2537       C  0.85038641  0.34415960  0.97145977    -0.04600
C2538       C  0.83297640  0.32548748  0.95364835     0.02400
C2539       C  0.84699999  0.34995490  0.86097913     0.09200
C2540       C  0.88168350  0.38869108  0.89741479     0.35100
C2541       C  0.81695256  0.30341847  0.97197008     0.38600
C2542       C  0.83395574  0.35917394  0.84309929    -0.05000
C2543       C  0.83306699  0.35957809  0.80692423     0.02200
C2544       C  0.84431501  0.34975149  0.78868928    -0.04600
C2545       C  0.85620536  0.33934018  0.80699450    -0.00800
C2546       C  0.85812453  0.34007291  0.84282992    -0.03400
C2547       C  0.82098580  0.36765909  0.86205196     0.35900
C2548       C  0.86511711  0.32641443  0.78938365     0.39500
C2549       C  0.82106183  0.37054227  0.78850043     0.38600
C2550       C  0.87109642  0.33011818  0.86130614     0.35500
C2551       C  0.81234265  0.30938945  0.90007484     0.36200
C2552       C  0.88331111  0.38503087  0.97074964     0.39500
N2553       N  0.81158369  0.37938482  0.77374382    -0.38600
N2554       N  0.81041817  0.37418159  0.87722814    -0.40200
N2555       N  0.87185924  0.31560631  0.77587910    -0.37900
N2556       N  0.88140604  0.32221050  0.87617214    -0.40300
N2557       N  0.89477612  0.40577804  0.88193734    -0.40100
N2558       N  0.89667036  0.40098572  0.98499659    -0.37700
N2559       N  0.80418716  0.28567896  0.98623999    -0.38800
N2560       N  0.79715040  0.29472823  0.88581514    -0.40400
C2561       C  0.82891227  0.35097913  0.41882940    -0.05400
C2562       C  0.84462058  0.34762172  0.39861489     0.08800
C2563       C  0.86150497  0.34260072  0.41446567    -0.02800
C2564       C  0.86183406  0.33974026  0.45058858    -0.01000
C2565       C  0.84577274  0.34273433  0.47106092    -0.04600
C2566       C  0.82976000  0.34903178  0.45482036     0.02400
C2567       C  0.84297892  0.34919127  0.36049004     0.09200
C2568       C  0.87866471  0.34061951  0.39354980     0.35100
C2569       C  0.81489961  0.35485759  0.47468862     0.38600
C2570       C  0.85499416  0.37101756  0.34173288    -0.05000
C2571       C  0.85324535  0.37246491  0.30575036     0.02200
C2572       C  0.83871999  0.35216578  0.28850377    -0.04600
C2573       C  0.82567952  0.33052165  0.30762513    -0.00800
C2574       C  0.82812871  0.32900417  0.34345708    -0.03400
C2575       C  0.86900602  0.39194527  0.35964644     0.35900
C2576       C  0.81059348  0.30956552  0.29034966     0.39500
C2577       C  0.86642297  0.39484919  0.28646085     0.38600
C2578       C  0.81561872  0.30660494  0.36289042     0.35500
C2579       C  0.81198115  0.35674380  0.40236803     0.36200
C2580       C  0.87830981  0.33314838  0.46647283     0.39500
N2581       N  0.87701932  0.41268725  0.27106386    -0.38600
N2582       N  0.87996755  0.40857046  0.37418424    -0.40200
N2583       N  0.79851169  0.29282474  0.27665649    -0.37900
N2584       N  0.80574683  0.28874615  0.37844312    -0.40300
N2585       N  0.89252942  0.33925892  0.37693827    -0.40100
N2586       N  0.89150385  0.32794805  0.47911309    -0.37700
N2587       N  0.80300482  0.36002192  0.48944414    -0.38800
N2588       N  0.79854826  0.36137766  0.38914916    -0.40400
C2589       C  0.94354219  0.26179771  0.01831219    -0.05400
C2590       C  0.91931645  0.24774809  0.02720212     0.08800
C2591       C  0.90766559  0.22397047  0.02052890    -0.02800
C2592       C  0.92012487  0.21417291  0.00517445    -0.01000
C2593       C  0.94447346  0.22822262  0.99585181    -0.04600
C2594       C  0.95607255  0.25217174  0.00274008     0.02400
C2595       C  0.90600369  0.25804952  0.04357405     0.09200
C2596       C  0.88277659  0.20958649  0.02993915     0.35100
C2597       C  0.98092729  0.26719754  0.99362636     0.38600
C2598       C  0.89484179  0.26812630  0.02294764    -0.05000
C2599       C  0.88345562  0.27898255  0.03814726     0.02200
C2600       C  0.88289581  0.27967085  0.07424022    -0.04600
C2601       C  0.89267953  0.26814955  0.09496384    -0.00800
C2602       C  0.90440118  0.25759731  0.07963786    -0.03400
C2603       C  0.89503431  0.26721475  0.98599746     0.35900
C2604       C  0.89131011  0.26766354  0.13200798     0.39500
C2605       C  0.87187325  0.28908369  0.01657358     0.38600
C2606       C  0.91507831  0.24643574  0.10089950     0.35500
C2607       C  0.95563437  0.28625330  0.02539803     0.36200
C2608       C  0.90798685  0.18933119  0.00080173     0.39500
N2609       N  0.86258143  0.29708285  0.99937824    -0.38600
N2610       N  0.89508227  0.26633134  0.95653996    -0.40200
N2611       N  0.89013339  0.26705714  0.16160106    -0.37900
N2612       N  0.92360500  0.23747363  0.11774141    -0.40300
N2613       N  0.86292613  0.19836909  0.03761891    -0.40100
N2614       N  0.89801531  0.16943947  0.99777314    -0.37700
N2615       N  0.00078997  0.27933704  0.98676522    -0.38800
N2616       N  0.96533923  0.30575499  0.03106844    -0.40400
C2617       C  0.75848109  0.40661829  0.15686849    -0.05400
C2618       C  0.77014002  0.43061020  0.14623470     0.08800
C2619       C  0.79507057  0.44305999  0.14365166    -0.02800
C2620       C  0.80822674  0.43135563  0.14964156    -0.01000
C2621       C  0.79652660  0.40684495  0.15745838    -0.04600
C2622       C  0.77158246  0.39479527  0.16297381     0.02400
C2623       C  0.75613363  0.44272881  0.13712238     0.09200
C2624       C  0.80721130  0.46788071  0.13366537     0.35100
C2625       C  0.75906325  0.37015259  0.17406303     0.38600
C2626       C  0.75536779  0.45830996  0.15934716    -0.05000
C2627       C  0.74228558  0.46978118  0.15064351     0.02200
C2628       C  0.72854030  0.46469487  0.12058938    -0.04600
C2629       C  0.73019189  0.44980487  0.09758933    -0.00800
C2630       C  0.74405258  0.43900222  0.10581212    -0.03400
C2631       C  0.76775039  0.46229227  0.19156821     0.35900
C2632       C  0.71738679  0.44503341  0.06576388     0.39500
C2633       C  0.74375303  0.48753064  0.17217597     0.38600
C2634       C  0.74573760  0.42378843  0.08217987     0.35500
C2635       C  0.73283383  0.39393475  0.16040784     0.36200
C2636       C  0.83391954  0.44476929  0.14779122     0.39500
N2637       N  0.74507202  0.50181887  0.18915186    -0.38600
N2638       N  0.77755351  0.46557365  0.21732433    -0.40200
N2639       N  0.70743559  0.44105169  0.04013150    -0.37900
N2640       N  0.74707861  0.41161872  0.06341589    -0.40300
N2641       N  0.81695512  0.48768740  0.12582716    -0.40100
N2642       N  0.85438775  0.45556200  0.14622298    -0.37700
N2643       N  0.74894717  0.35057149  0.18333316    -0.38800
N2644       N  0.71236976  0.38381680  0.16292109    -0.40400
C2645       C  0.64509235  0.24846804  0.10359891    -0.05400
C2646       C  0.65706913  0.25354791  0.13497959     0.08800
C2647       C  0.64387300  0.24507933  0.16623000    -0.02800
C2648       C  0.61888740  0.23152678  0.16603104    -0.01000
C2649       C  0.60702283  0.22630777  0.13461961    -0.04600
C2650       C  0.62024304  0.23518857  0.10340338     0.02400
C2651       C  0.68355113  0.26827497  0.13460589     0.09200
C2652       C  0.65599886  0.25022778  0.19859328     0.35100
C2653       C  0.60833598  0.23139472  0.07075351     0.38600
C2654       C  0.69433142  0.29209795  0.12279327    -0.05000
C2655       C  0.71922924  0.30550748  0.11912134     0.02200
C2656       C  0.73354675  0.29536099  0.12827095    -0.04600
C2657       C  0.72280070  0.27174862  0.14102075    -0.00800
C2658       C  0.69790193  0.25818538  0.14386589    -0.03400
C2659       C  0.67963014  0.30270849  0.11442322     0.35900
C2660       C  0.73740353  0.26133103  0.15113241     0.39500
C2661       C  0.73003101  0.32972951  0.10603666     0.38600
C2662       C  0.68703671  0.23381025  0.15627507     0.35500
C2663       C  0.65834790  0.25703948  0.07127864     0.36200
C2664       C  0.60543807  0.22270578  0.19805919     0.39500
N2665       N  0.73839496  0.34902818  0.09549575    -0.38600
N2666       N  0.66760154  0.31081334  0.10770984    -0.40200
N2667       N  0.74894156  0.25292442  0.15934400    -0.37900
N2668       N  0.67833088  0.21443284  0.16652883    -0.40300
N2669       N  0.66564730  0.25411315  0.22447330    -0.40100
N2670       N  0.59469705  0.21575329  0.22363395    -0.37700
N2671       N  0.59926233  0.22871984  0.04444353    -0.38800
N2672       N  0.66876989  0.26402966  0.04544853    -0.40400
C2673       C  0.03475147  0.40056641  0.20691868    -0.05400
C2674       C  0.01730967  0.40751639  0.20297990     0.08800
C2675       C  0.02080054  0.42799796  0.21764409    -0.02800
C2676       C  0.04236521  0.44241836  0.23340397    -0.01000
C2677       C  0.06028507  0.43612775  0.23560266    -0.04600
C2678       C  0.05605105  0.41470592  0.22359142     0.02400
C2679       C  0.99551291  0.39392056  0.18262891     0.09200
C2680       C  0.00256834  0.43478161  0.21514014     0.35100
C2681       C  0.07432895  0.40799004  0.22632444     0.38600
C2682       C  0.97730554  0.37205232  0.19598404    -0.05000
C2683       C  0.95519101  0.36144872  0.17990811     0.02200
C2684       C  0.95080301  0.37305901  0.15122516    -0.04600
C2685       C  0.96963367  0.39379934  0.13603907    -0.00800
C2686       C  0.99208796  0.40395581  0.15133019    -0.03400
C2687       C  0.98086095  0.36105078  0.22727921     0.35900
C2688       C  0.96542609  0.40582048  0.10659025     0.39500
C2689       C  0.93645020  0.33900515  0.19385653     0.38600
C2690       C  0.01136475  0.42545095  0.13585795     0.35500
C2691       C  0.03136610  0.37953824  0.19225711     0.36200
C2692       C  0.04675943  0.46449706  0.24549610     0.39500
N2693       N  0.92151822  0.32108641  0.20488409    -0.38600
N2694       N  0.98382571  0.35223893  0.25209583    -0.40200
N2695       N  0.96218014  0.41560055  0.08321256    -0.37900
N2696       N  0.02669628  0.44262864  0.12349733    -0.40300
N2697       N  0.98806420  0.44022820  0.21284931    -0.40100
N2698       N  0.05032648  0.48215837  0.25501494    -0.37700
N2699       N  0.08881815  0.40251873  0.22846520    -0.38800
N2700       N  0.02865775  0.36270214  0.18074135    -0.40400
loop_ 
_geom_bond_atom_site_label_1 
_geom_bond_atom_site_label_2 
_geom_bond_distance 
_geom_bond_site_symmetry_2 
_ccdc_geom_bond_type 
Zr1           O2   2.442       .  S
Zr1           O3   2.452       .  S
Zr1           O4   2.450       .  S
Zr1           O7   2.427       .  S
Zr1           O9   2.378       .  S
Zr1          O10   2.383       .  S
Zr1          O11   2.415       .  S
Zr1          O12   2.412       .  S
O2           H58   0.991       .  S
O2           H66   0.990       .  S
O3           C23   1.286       .  A
O4           C25   1.285       .  A
O5          Zr15   2.444       .  S
O5           C24   1.285       .  A
O6          Zr14   2.405       .  S
O6           C25   1.277       .  A
O7           C24   1.282       .  A
O8          Zr16   2.403       .  S
O8           C23   1.280       .  A
O9          Zr14   2.383       .  S
O9          Zr16   2.381       .  S
O10         Zr15   2.378       .  S
O10         Zr16   2.392       .  S
O10          H45   0.965       .  S
O11         Zr14   2.393       .  S
O11         Zr31   2.416       .  S
O11          H48   0.966       .  S
O12         Zr15   2.386       .  S
O12         Zr31   2.410       .  S
Zr13         O38   2.435       .  S
Zr13         O32   2.421       .  S
Zr13         O40   2.455       .  S
Zr13         O28   2.473       .  S
Zr13         O19   2.396       .  S
Zr13         O20   2.404       .  S
Zr13         O21   2.377       .  S
Zr13         O22   2.392       .  S
Zr14         O33   2.440       .  S
Zr14         O26   2.435       .  S
Zr14         O27   2.383       .  S
Zr14         O20   2.391       .  S
Zr14         O21   2.392       .  S
Zr15         O17   2.433       .  S
Zr15         O39   2.440       .  S
Zr15         O41   2.408       .  S
Zr15         O19   2.397       .  S
Zr15         O22   2.392       .  S
Zr16         O42   2.436       .  S
Zr16         O43   2.438       .  S
Zr16         O18   2.438       .  S
Zr16         O19   2.381       .  S
Zr16         O20   2.392       .  S
O17          H54   0.990       .  S
O18          H49   0.990       .  S
O18          H63   0.990       .  S
O20          H46   0.966       .  S
O21         Zr31   2.364       .  S
O22         Zr31   2.374       .  S
O22          H47   0.965       .  S
C23        C2621   1.496       .  S
C24        C2656   1.483       .  S
C25        C2572   1.481       .  S
O26          H62   0.990       .  S
O27          C29   1.277       .  A
O28          C29   1.292       .  A
C29        C2684   1.482       .  S
O30         Zr31   2.434       .  S
O30          H59   0.990       .  S
Zr31         O34   2.434       .  S
Zr31         O35   2.437       .  S
Zr31         O36   2.458       .  S
O32          C37   1.282       .  A
O33          H50   0.990       .  S
O33          H65   0.990       .  S
O34          H51   0.989       .  S
O35          H55   0.990       .  S
O35          H64   0.990       .  S
O36          C37   1.288       .  A
C37        C2600   1.493       .  S
O38          H57   0.989       .  S
O38          H61   0.990       .  S
O39          H53   0.990       .  S
O39          H60   0.990       .  S
O40          C44   1.290       .  A
O41          C44   1.282       .  A
O42          H52   0.990       .  S
O43          H56   0.990       .  S
C44        C2537   1.486   1_554  S
Zr67         O68   2.444       .  S
Zr67         O69   2.473       .  S
Zr67         O70   2.454       .  S
Zr67         O73   2.397       .  S
Zr67         O75   2.373       .  S
Zr67         O76   2.382       .  S
Zr67         O77   2.413       .  S
Zr67         O78   2.418       .  S
O68         H124   0.990       .  S
O68         H132   0.990       .  S
O69          C89   1.290       .  A
O70          C91   1.285       .  A
O71         Zr81   2.449       .  S
O71          C90   1.286       .  A
O72         Zr80   2.412       .  S
O72          C91   1.279       .  A
O73          C90   1.277       .  A
O74         Zr82   2.401       .  S
O74          C89   1.277       .  A
O75         Zr80   2.385       .  S
O75         Zr82   2.383       .  S
O76         Zr81   2.378       .  S
O76         Zr82   2.383       .  S
O76         H111   0.964       .  S
O77         Zr80   2.386       .  S
O77         Zr97   2.409       .  S
O77         H114   0.965       .  S
O78         Zr81   2.385       .  S
O78         Zr97   2.405       .  S
Zr79        O104   2.440       .  S
Zr79         O98   2.438       .  S
Zr79        O106   2.446       .  S
Zr79         O94   2.473       .  S
Zr79         O85   2.403       .  S
Zr79         O86   2.410       .  S
Zr79         O87   2.378       .  S
Zr79         O88   2.393       .  S
Zr80         O99   2.436       .  S
Zr80         O92   2.433       .  S
Zr80         O93   2.373       .  S
Zr80         O86   2.397       .  S
Zr80         O87   2.391       .  S
Zr81         O83   2.433       .  S
Zr81        O105   2.437       .  S
Zr81        O107   2.423       .  S
Zr81         O85   2.399       .  S
Zr81         O88   2.395       .  S
Zr82        O108   2.433       .  S
Zr82        O109   2.435       .  S
Zr82         O84   2.438       .  S
Zr82         O85   2.385       .  S
Zr82         O86   2.393       .  S
O83         H120   0.990       .  S
O84         H115   0.990       .  S
O84         H129   0.990       .  S
O86         H112   0.965       .  S
O87         Zr97   2.370       .  S
O88         Zr97   2.378       .  S
O88         H113   0.965       .  S
C89        C2453   1.481       .  S
C90        C2481   1.487       .  S
C91        C2544   1.485       .  S
O92         H128   0.990       .  S
O93          C95   1.275       .  A
O94          C95   1.289       .  A
C95        C2509   1.481       .  S
O96         Zr97   2.436       .  S
O96         H125   0.990       .  S
Zr97        O100   2.435       .  S
Zr97        O101   2.439       .  S
Zr97        O102   2.450       .  S
O98         C103   1.284       .  A
O99         H116   0.990       .  S
O99         H131   0.988       .  S
O100        H117   0.990       .  S
O101        H121   0.990       .  S
O101        H130   0.990       .  S
O102        C103   1.286       .  A
C103       C2425   1.494       .  S
O104        H123   0.990       .  S
O104        H127   0.990       .  S
O105        H119   0.990       .  S
O105        H126   0.990       .  S
O106        C110   1.288       .  A
O107        C110   1.284       .  A
O108        H118   0.990       .  S
O109        H122   0.990       .  S
C110       C2565   1.490       .  S
Zr133       O134   2.443       .  S
Zr133       O135   2.470       .  S
Zr133       O136   2.424       .  S
Zr133       O139   2.381       .  S
Zr133       O141   2.369       .  S
Zr133       O142   2.368       .  S
Zr133       O143   2.408       .  S
Zr133       O144   2.415       .  S
O134        H190   0.991       .  S
O134        H198   0.989       .  S
O135        C155   1.290       .  A
O136        C157   1.280       .  A
O137       Zr147   2.483       .  S
O137        C156   1.293       .  A
O138       Zr146   2.406       .  S
O138        C157   1.278       .  A
O139        C156   1.275       .  A
O140       Zr148   2.394       .  S
O140        C155   1.277       .  A
O141       Zr146   2.389       .  S
O141       Zr148   2.383       .  S
O142       Zr147   2.369       .  S
O142       Zr148   2.388       .  S
O142        H177   0.965       .  S
O143       Zr146   2.387       .  S
O143       Zr163   2.422       .  S
O143        H180   0.966       .  S
O144       Zr147   2.384       .  S
O144       Zr163   2.420       .  S
Zr145       O170   2.434       .  S
Zr145       O164   2.400       .  S
Zr145       O172   2.430       .  S
Zr145       O160   2.456       .  S
Zr145       O151   2.392       .  S
Zr145       O152   2.398       .  S
Zr145       O153   2.371       .  S
Zr145       O154   2.391       .  S
Zr146       O165   2.439       .  S
Zr146       O158   2.433       .  S
Zr146       O159   2.386       .  S
Zr146       O152   2.401       .  S
Zr146       O153   2.388       .  S
Zr147       O149   2.432       .  S
Zr147       O171   2.435       .  S
Zr147       O173   2.428   1_554  S
Zr147       O151   2.409       .  S
Zr147       O154   2.396       .  S
Zr148       O174   2.435       .  S
Zr148       O175   2.436       .  S
Zr148       O150   2.438       .  S
Zr148       O151   2.380       .  S
Zr148       O152   2.391       .  S
O149        H186   0.990       .  S
O150        H181   0.991       .  S
O150        H195   0.990       .  S
O152        H178   0.967       .  S
O153       Zr163   2.361       .  S
O154       Zr163   2.371       .  S
O154        H179   0.966       .  S
C155       C2649   1.483       .  S
C156       C2341   1.500       .  S
C157       C2313   1.472       .  S
O158        H194   0.990       .  S
O159        C161   1.277       .  A
O160        C161   1.288       .  A
C161       C2369   1.477       .  S
O162       Zr163   2.440       .  S
O162        H191   0.990       .  S
Zr163       O166   2.439       .  S
Zr163       O167   2.438       .  S
Zr163       O168   2.484       .  S
O164        C169   1.278       .  A
O165        H182   0.990       .  S
O165        H197   0.990       .  S
O166        H183   0.990       .  S
O167        H187   0.990       .  S
O167        H196   0.990       .  S
O168        C169   1.294       .  A
C169       C2397   1.502       .  S
O170        H189   0.989       .  S
O170        H193   0.990       .  S
O171        H185   0.990       .  S
O171        H192   0.990   1_554  S
O172        C176   1.286   1_554  A
O173        C176   1.285       .  A
O174        H184   0.990       .  S
O175        H188   0.990       .  S
C176       C2292   1.488       .  S
Zr199       O200   2.443       .  S
Zr199       O201   2.462       .  S
Zr199       O202   2.427       .  S
Zr199       O205   2.406       .  S
Zr199       O207   2.379       .  S
Zr199       O208   2.376       .  S
Zr199       O209   2.410       .  S
Zr199       O210   2.409       .  S
O200        H256   0.990       .  S
O200        H264   0.991       .  S
O201        C221   1.288       .  A
O202        C223   1.281       .  A
O203       Zr213   2.488       .  S
O203        C222   1.294       .  A
O204       Zr212   2.435       .  S
O204        C223   1.282       .  A
O205        C222   1.279       .  A
O206       Zr214   2.386       .  S
O206        C221   1.275       .  A
O207       Zr212   2.382       .  S
O207       Zr214   2.384       .  S
O208       Zr213   2.375       .  S
O208       Zr214   2.391       .  S
O208        H243   0.965       .  S
O209       Zr212   2.394       .  S
O209       Zr229   2.416       .  S
O209        H246   0.966       .  S
O210       Zr213   2.388       .  S
O210       Zr229   2.415       .  S
Zr211       O236   2.440       .  S
Zr211       O230   2.401       .  S
Zr211       O238   2.422       .  S
Zr211       O226   2.453       .  S
Zr211       O217   2.393       .  S
Zr211       O218   2.402       .  S
Zr211       O219   2.366       .  S
Zr211       O220   2.391       .  S
Zr212       O231   2.439       .  S
Zr212       O224   2.435       .  S
Zr212       O225   2.396       .  S
Zr212       O218   2.401       .  S
Zr212       O219   2.386       .  S
Zr213       O215   2.434       .  S
Zr213       O237   2.436       .  S
Zr213       O239   2.432       .  S
Zr213       O217   2.405       .  S
Zr213       O220   2.402       .  S
Zr214       O240   2.435       .  S
Zr214       O241   2.436       .  S
Zr214       O216   2.437       .  S
Zr214       O217   2.381       .  S
Zr214       O218   2.389       .  S
O215        H252   0.990       .  S
O216        H247   0.990       .  S
O216        H261   0.990       .  S
O218        H244   0.966       .  S
O219       Zr229   2.343       .  S
O220       Zr229   2.369       .  S
O220        H245   0.967       .  S
C221       C2488   1.473       .  S
C222       C2201   1.518       .  S
C223       C2285   1.487       .  S
O224        H260   0.990       .  S
O225        C227   1.278       .  A
O226        C227   1.288       .  A
C227       C2236   1.470       .  S
O228       Zr229   2.433       .  S
O228        H257   0.990       .  S
Zr229       O232   2.436       .  S
Zr229       O233   2.434       .  S
Zr229       O234   2.479       .  S
O230        C235   1.278       .  A
O231        H248   0.990       .  S
O231        H263   0.989       .  S
O232        H249   0.990       .  S
O233        H253   0.990       .  S
O233        H262   0.990       .  S
O234        C235   1.292       .  A
C235       C2257   1.519       .  S
O236        H255   0.990       .  S
O236        H259   0.990       .  S
O237        H251   0.990       .  S
O237        H258   0.989       .  S
O238        C242   1.284       .  A
O239        C242   1.286       .  A
O240        H250   0.990       .  S
O241        H254   0.990       .  S
C242       C2320   1.478       .  S
Zr265       O266   2.444       .  S
Zr265       O267   2.470       .  S
Zr265       O268   2.458       .  S
Zr265       O271   2.417       .  S
Zr265       O273   2.380       .  S
Zr265       O274   2.382       .  S
Zr265       O275   2.425       .  S
Zr265       O276   2.411       .  S
O266        H322   0.990       .  S
O266        H330   0.990       .  S
O267        C287   1.290       .  A
O268        C289   1.286       .  A
O269       Zr279   2.449       .  S
O269        C288   1.286       .  A
O270       Zr278   2.425       .  S
O270        C289   1.279       .  A
O271        C288   1.282       .  A
O272       Zr280   2.389       .  S
O272        C287   1.275       .  A
O273       Zr278   2.385       .  S
O273       Zr280   2.381       .  S
O274       Zr279   2.376       .  S
O274       Zr280   2.395       .  S
O274        H309   0.964       .  S
O275       Zr278   2.398       .  S
O275       Zr295   2.428       .  S
O275        H312   0.966       .  S
O276       Zr279   2.387       .  S
O276       Zr295   2.403       .  S
Zr277       O302   2.438       .  S
Zr277       O296   2.422       .  S
Zr277       O304   2.470       .  S
Zr277       O292   2.459       .  S
Zr277       O283   2.390       .  S
Zr277       O284   2.416       .  S
Zr277       O285   2.382       .  S
Zr277       O286   2.392       .  S
Zr278       O297   2.445       .  S
Zr278       O290   2.436       .  S
Zr278       O291   2.390       .  S
Zr278       O284   2.397       .  S
Zr278       O285   2.395       .  S
Zr279       O281   2.435       .  S
Zr279       O303   2.436       .  S
Zr279       O305   2.418       .  S
Zr279       O283   2.399       .  S
Zr279       O286   2.389       .  S
Zr280       O306   2.434       .  S
Zr280       O307   2.435       .  S
Zr280       O282   2.436       .  S
Zr280       O283   2.381       .  S
Zr280       O284   2.394       .  S
O281        H318   0.990       .  S
O282        H313   0.990       .  S
O282        H327   0.990       .  S
O284        H310   0.966       .  S
O285       Zr295   2.355       .  S
O286       Zr295   2.376       .  S
O286        H311   0.965       .  S
C287       C2348   1.483       .  S
C288       C2628   1.495       .  S
C289       C2117   1.496       .  S
O290        H326   0.990       .  S
O291        C293   1.278       .  A
O292        C293   1.289       .  A
C293       C2152   1.479       .  S
O294       Zr295   2.435       .  S
O294        H323   0.990       .  S
Zr295       O298   2.436       .  S
Zr295       O299   2.437       .  S
Zr295       O300   2.473       .  S
O296        C301   1.282       .  A
O297        H314   0.991       .  S
O297        H329   0.991       .  S
O298        H315   0.990       .  S
O299        H319   0.990       .  S
O299        H328   0.990       .  S
O300        C301   1.291       .  A
C301       C2180   1.498       .  S
O302        H321   0.990       .  S
O302        H325   0.990       .  S
O303        H317   0.990       .  S
O303        H324   0.989       .  S
O304        C308   1.292   1_554  A
O305        C308   1.283   1_554  A
O306        H316   0.990       .  S
O307        H320   0.990       .  S
C308       C2089   1.493       .  S
Zr331       O332   2.444       .  S
Zr331       O333   2.484       .  S
Zr331       O334   2.453       .  S
Zr331       O337   2.404       .  S
Zr331       O339   2.380       .  S
Zr331       O340   2.380       .  S
Zr331       O341   2.423       .  S
Zr331       O342   2.424       .  S
O332        H388   0.990       .  S
O332        H396   0.989       .  S
O333        C353   1.291       .  A
O334        C355   1.285       .  A
O335       Zr345   2.461       .  S
O335        C354   1.288       .  A
O336       Zr344   2.420       .  S
O336        C355   1.280       .  A
O337        C354   1.278       .  A
O338       Zr346   2.402       .  S
O338        C353   1.277       .  A
O339       Zr344   2.394       .  S
O339       Zr346   2.387       .  S
O340       Zr345   2.374       .  S
O340       Zr346   2.386       .  S
O340        H375   0.962       .  S
O341       Zr344   2.403       .  S
O341       Zr361   2.425       .  S
O341        H378   0.966       .  S
O342       Zr345   2.379       .  S
O342       Zr361   2.414       .  S
Zr343       O368   2.437       .  S
Zr343       O362   2.419       .  S
Zr343       O370   2.464       .  S
Zr343       O358   2.480       .  S
Zr343       O349   2.398       .  S
Zr343       O350   2.409       .  S
Zr343       O351   2.383       .  S
Zr343       O352   2.397       .  S
Zr344       O363   2.444       .  S
Zr344       O356   2.435       .  S
Zr344       O357   2.411       .  S
Zr344       O350   2.393       .  S
Zr344       O351   2.391       .  S
Zr345       O347   2.433       .  S
Zr345       O369   2.438       .  S
Zr345       O371   2.410       .  S
Zr345       O349   2.399       .  S
Zr345       O352   2.393       .  S
Zr346       O372   2.435       .  S
Zr346       O373   2.434       .  S
Zr346       O348   2.436       .  S
Zr346       O349   2.380       .  S
Zr346       O350   2.400       .  S
O347        H384   0.990       .  S
O348        H379   0.990       .  S
O348        H393   0.990       .  S
O350        H376   0.967       .  S
O351       Zr361   2.361       .  S
O352       Zr361   2.371       .  S
O352        H377   0.967       .  S
C353       C2208   1.489       .  S
C354       C2460   1.493       .  S
C355       C2096   1.489       .  S
O356        H392   0.990       .  S
O357        C359   1.279       .  A
O358        C359   1.292       .  A
C359       C2040   1.493       .  S
O360       Zr361   2.437       .  S
O360        H389   0.990       .  S
Zr361       O364   2.433       .  S
Zr361       O365   2.441       .  S
Zr361       O366   2.484       .  S
O362        C367   1.282       .  A
O363        H380   0.990       .  S
O363        H395   0.991       .  S
O364        H381   0.991       .  S
O365        H385   0.990       .  S
O365        H394   0.990       .  S
O366        C367   1.294       .  A
C367       C2061   1.520       .  S
O368        H387   0.990       .  S
O368        H391   0.990       .  S
O369        H383   0.990       .  S
O369        H390   0.990       .  S
O370        C374   1.292       .  A
O371        C374   1.282       .  A
O372        H382   0.990       .  S
O373        H386   0.990       .  S
C374       C2124   1.493       .  S
Zr397       O398   2.443       .  S
Zr397       O399   2.476       .  S
Zr397       O400   2.453       .  S
Zr397       O403   2.398       .  S
Zr397       O405   2.383       .  S
Zr397       O406   2.385       .  S
Zr397       O407   2.421       .  S
Zr397       O408   2.418       .  S
O398        H454   0.990       .  S
O398        H462   0.990       .  S
O399        C419   1.291       .  A
O400        C421   1.285       .  A
O401       Zr411   2.458       .  S
O401        C420   1.288       .  A
O402       Zr410   2.418       .  S
O402        C421   1.279       .  A
O403        C420   1.277       .  A
O404       Zr412   2.407       .  S
O404        C419   1.281       .  A
O405       Zr410   2.386       .  S
O405       Zr412   2.388       .  S
O406       Zr411   2.377       .  S
O406       Zr412   2.388       .  S
O406        H441   0.961       .  S
O407       Zr410   2.401       .  S
O407       Zr427   2.404       .  S
O407        H444   0.966       .  S
O408       Zr411   2.385       .  S
O408       Zr427   2.410       .  S
Zr409       O434   2.434       .  S
Zr409       O428   2.423       .  S
Zr409       O436   2.445       .  S
Zr409       O424   2.448       .  S
Zr409       O415   2.398       .  S
Zr409       O416   2.405       .  S
Zr409       O417   2.381       .  S
Zr409       O418   2.389       .  S
Zr410       O429   2.443       .  S
Zr410       O422   2.434       .  S
Zr410       O423   2.409       .  S
Zr410       O416   2.384       .  S
Zr410       O417   2.398       .  S
Zr411       O413   2.432       .  S
Zr411       O435   2.438       .  S
Zr411       O437   2.418       .  S
Zr411       O415   2.404       .  S
Zr411       O418   2.396       .  S
Zr412       O438   2.432       .  S
Zr412       O439   2.437       .  S
Zr412       O414   2.438       .  S
Zr412       O415   2.389       .  S
Zr412       O416   2.391       .  S
O413        H450   0.990       .  S
O414        H445   0.991       .  S
O414        H459   0.990       .  S
O416        H442   0.966       .  S
O417       Zr427   2.368       .  S
O418       Zr427   2.366       .  S
O418        H443   0.966       .  S
C419       C2005   1.500       .  S
C420       C1984   1.481       .  S
C421       C1921   1.485       .  S
O422        H458   0.990       .  S
O423        C425   1.281       .  A
O424        C425   1.287       .  A
C425       C2376   1.486       .  S
O426       Zr427   2.435       .  S
O426        H455   0.990       .  S
Zr427       O430   2.435       .  S
Zr427       O431   2.436       .  S
Zr427       O432   2.471       .  S
O428        C433   1.282       .  A
O429        H446   0.991       .  S
O429        H461   0.990       .  S
O430        H447   0.990       .  S
O431        H451   0.990       .  S
O431        H460   0.990       .  S
O432        C433   1.290       .  A
C433       C1949   1.497       .  S
O434        H453   0.989       .  S
O434        H457   0.989       .  S
O435        H449   0.990       .  S
O435        H456   0.989       .  S
O436        C440   1.288       .  A
O437        C440   1.283       .  A
O438        H448   0.990       .  S
O439        H452   0.990       .  S
C440       C1893   1.486       .  S
Zr463       O464   2.444       .  S
Zr463       O465   2.477       .  S
Zr463       O466   2.450       .  S
Zr463       O469   2.402       .  S
Zr463       O471   2.380       .  S
Zr463       O472   2.382       .  S
Zr463       O473   2.420       .  S
Zr463       O474   2.422       .  S
O464        H520   0.991       .  S
O464        H528   0.990       .  S
O465        C485   1.291       .  A
O466        C487   1.284       .  A
O467       Zr477   2.477       .  S
O467        C486   1.291       .  A
O468       Zr476   2.424       .  S
O468        C487   1.281       .  A
O469        C486   1.278       .  A
O470       Zr478   2.407       .  S
O470        C485   1.279       .  A
O471       Zr476   2.383       .  S
O471       Zr478   2.385       .  S
O472       Zr477   2.371       .  S
O472       Zr478   2.384       .  S
O472        H507   0.963       .  S
O473       Zr476   2.404       .  S
O473       Zr493   2.413       .  S
O473        H510   0.964       .  S
O474       Zr477   2.389       .  S
O474       Zr493   2.415       .  S
Zr475       O500   2.430       .  S
Zr475       O494   2.432       .  S
Zr475       O502   2.436       .  S
Zr475       O490   2.453       .  S
Zr475       O481   2.404       .  S
Zr475       O482   2.412       .  S
Zr475       O483   2.376       .  S
Zr475       O484   2.391       .  S
Zr476       O495   2.443       .  S
Zr476       O488   2.435       .  S
Zr476       O489   2.404       .  S
Zr476       O482   2.388       .  S
Zr476       O483   2.397       .  S
Zr477       O479   2.433       .  S
Zr477       O501   2.436       .  S
Zr477       O503   2.428       .  S
Zr477       O481   2.402       .  S
Zr477       O484   2.393       .  S
Zr478       O504   2.434       .  S
Zr478       O505   2.437       .  S
Zr478       O480   2.441       .  S
Zr478       O481   2.391       .  S
Zr478       O482   2.401       .  S
O479        H516   0.990       .  S
O480        H511   0.990       .  S
O480        H525   0.990       .  S
O482        H508   0.966       .  S
O483       Zr493   2.366       .  S
O484       Zr493   2.368       .  S
O484        H509   0.965       .  S
C485       C1865   1.489       .  S
C486       C1837   1.504       .  S
C487       C1900   1.492       .  S
O488        H524   0.991       .  S
O489        C491   1.279       .  A
O490        C491   1.288       .  A
C491       C2229   1.489       .  S
O492       Zr493   2.436       .  S
O492        H521   0.990       .  S
Zr493       O496   2.434       .  S
Zr493       O497   2.434       .  S
Zr493       O498   2.473       .  S
O494        C499   1.284       .  A
O495        H512   0.990       .  S
O495        H527   0.989       .  S
O496        H513   0.990       .  S
O497        H517   0.990       .  S
O497        H526   0.989       .  S
O498        C499   1.291       .  A
C499       C1816   1.504       .  S
O500        H519   0.990       .  S
O500        H523   0.990       .  S
O501        H515   0.990       .  S
O501        H522   0.989       .  S
O502        C506   1.287       .  A
O503        C506   1.285       .  A
O504        H514   0.990       .  S
O505        H518   0.990       .  S
C506       C1928   1.490       .  S
Zr529       O530   2.442       .  S
Zr529       O531   2.463       .  S
Zr529       O532   2.440       .  S
Zr529       O535   2.398       .  S
Zr529       O537   2.377       .  S
Zr529       O538   2.382       .  S
Zr529       O539   2.410       .  S
Zr529       O540   2.409       .  S
O530        H586   0.990       .  S
O530        H594   0.989       .  S
O531        C551   1.288       .  A
O532        C553   1.283       .  A
O533       Zr543   2.460       .  S
O533        C552   1.287       .  A
O534       Zr542   2.420       .  S
O534        C553   1.280       .  A
O535        C552   1.277       .  A
O536       Zr544   2.398       .  S
O536        C551   1.277       .  A
O537       Zr542   2.382       .  S
O537       Zr544   2.382       .  S
O538       Zr543   2.372       .  S
O538       Zr544   2.385       .  S
O538        H573   0.962       .  S
O539       Zr542   2.396       .  S
O539       Zr559   2.418       .  S
O539        H576   0.966       .  S
O540       Zr543   2.386       .  S
O540       Zr559   2.406       .  S
Zr541       O566   2.441       .  S
Zr541       O560   2.407       .  S
Zr541       O568   2.456       .  S
Zr541       O556   2.465       .  S
Zr541       O547   2.396       .  S
Zr541       O548   2.405       .  S
Zr541       O549   2.372       .  S
Zr541       O550   2.393       .  S
Zr542       O561   2.440       .  S
Zr542       O554   2.435       .  S
Zr542       O555   2.392       .  S
Zr542       O548   2.394       .  S
Zr542       O549   2.386       .  S
Zr543       O545   2.434       .  S
Zr543       O567   2.436       .  S
Zr543       O569   2.418       .  S
Zr543       O547   2.401       .  S
Zr543       O550   2.392       .  S
Zr544       O570   2.435       .  S
Zr544       O571   2.435       .  S
Zr544       O546   2.437       .  S
Zr544       O547   2.382       .  S
Zr544       O548   2.392       .  S
O545        H582   0.990       .  S
O546        H577   0.990       .  S
O546        H591   0.990       .  S
O548        H574   0.966       .  S
O549       Zr559   2.357       .  S
O550       Zr559   2.378       .  S
O550        H575   0.966       .  S
C551       C1977   1.475       .  S
C552       C1753   1.499       .  S
C553       C1725   1.484       .  S
O554        H590   0.990       .  S
O555        C557   1.277       .  A
O556        C557   1.290       .  A
C557       C2677   1.475       .  S
O558       Zr559   2.442       .  S
O558        H587   0.990       .  S
Zr559       O562   2.437       .  S
Zr559       O563   2.441       .  S
Zr559       O564   2.468       .  S
O560        C565   1.279       .  A
O561        H578   0.990       .  S
O561        H593   0.990       .  S
O562        H579   0.990       .  S
O563        H583   0.989       .  S
O563        H592   0.989       .  S
O564        C565   1.291       .  A
C565       C1788   1.515       .  S
O566        H585   0.989       .  S
O566        H589   0.990       .  S
O567        H581   0.990       .  S
O567        H588   0.989       .  S
O568        C572   1.290       .  A
O569        C572   1.282       .  A
O570        H580   0.990       .  S
O571        H584   0.990       .  S
C572       C1704   1.490       .  S
Zr595       O596   2.441       .  S
Zr595       O597   2.483       .  S
Zr595       O598   2.473       .  S
Zr595       O601   2.402       .  S
Zr595       O603   2.366       .  S
Zr595       O604   2.378       .  S
Zr595       O605   2.420       .  S
Zr595       O606   2.423       .  S
O596        H652   0.990       .  S
O596        H660   0.989       .  S
O597        C617   1.292       .  A
O598        C619   1.289       .  A
O599       Zr609   2.460       .  S
O599        C618   1.288       .  A
O600       Zr608   2.411       .  S
O600        C619   1.279       .  A
O601        C618   1.280       .  A
O602       Zr610   2.395       .  S
O602        C617   1.276       .  A
O603       Zr608   2.394       .  S
O603       Zr610   2.385       .  S
O604       Zr609   2.385       .  S
O604       Zr610   2.381       .  S
O604        H639   0.954       .  S
O605       Zr608   2.376       .  S
O605       Zr625   2.430       .  S
O605        H642   0.964       .  S
O606       Zr609   2.384       .  S
O606       Zr625   2.410       .  S
Zr607       O632   2.440       .  S
Zr607       O626   2.430       .  S
Zr607       O634   2.455       .  S
Zr607       O622   2.470       .  S
Zr607       O613   2.394       .  S
Zr607       O614   2.406       .  S
Zr607       O615   2.385       .  S
Zr607       O616   2.396       .  S
Zr608       O627   2.436       .  S
Zr608       O620   2.432       .  S
Zr608       O621   2.371       .  S
Zr608       O614   2.401       .  S
Zr608       O615   2.392       .  S
Zr609       O611   2.437       .  S
Zr609       O633   2.437       .  S
Zr609       O635   2.419       .  S
Zr609       O613   2.402       .  S
Zr609       O616   2.397       .  S
Zr610       O636   2.436       .  S
Zr610       O637   2.435       .  S
Zr610       O612   2.436       .  S
Zr610       O613   2.375       .  S
Zr610       O614   2.381       .  S
O611        H648   0.990       .  S
O612        H643   0.990       .  S
O612        H657   0.990       .  S
O614        H640   0.964       .  S
O615       Zr625   2.369       .  S
O616       Zr625   2.375       .  S
O616        H641   0.965       .  S
C617       C1844   1.492       .  S
C618       C1648   1.489       .  S
C619       C1697   1.496       .  S
O620        H656   0.989       .  S
O621        C623   1.274       .  A
O622        C623   1.290       .  A
C623       C2516   1.474       .  S
O624       Zr625   2.438       .  S
O624        H653   0.990       .  S
Zr625       O628   2.437       .  S
Zr625       O629   2.438       .  S
Zr625       O630   2.477       .  S
O626        C631   1.282       .  A
O627        H644   0.990       .  S
O627        H659   0.990       .  S
O628        H645   0.990       .  S
O629        H649   0.990       .  S
O629        H658   0.990       .  S
O630        C631   1.292       .  A
C631       C1669   1.499       .  S
O632        H651   0.990       .  S
O632        H655   0.990       .  S
O633        H647   0.990       .  S
O633        H654   0.989       .  S
O634        C638   1.288       .  A
O635        C638   1.283       .  A
O636        H646   0.990       .  S
O637        H650   0.991       .  S
C638       C1732   1.489       .  S
Zr661       O662   2.440       .  S
Zr661       O663   2.457       .  S
Zr661       O664   2.463       .  S
Zr661       O667   2.418       .  S
Zr661       O669   2.373       .  S
Zr661       O670   2.390       .  S
Zr661       O671   2.410       .  S
Zr661       O672   2.406       .  S
O662        H718   0.990       .  S
O662        H726   0.990       .  S
O663        C683   1.288       .  A
O664        C685   1.287       .  A
O665       Zr675   2.438       .  S
O665        C684   1.286       .  A
O666       Zr674   2.388       .  S
O666        C685   1.275       .  A
O667        C684   1.281       .  A
O668       Zr676   2.410       .  S
O668        C683   1.279       .  A
O669       Zr674   2.387       .  S
O669       Zr676   2.385       .  S
O670       Zr675   2.374       .  S
O670       Zr676   2.388       .  S
O670        H705   0.965       .  S
O671       Zr674   2.384       .  S
O671       Zr691   2.417       .  S
O671        H708   0.966       .  S
O672       Zr675   2.378       .  S
O672       Zr691   2.393       .  S
Zr673       O698   2.439       .  S
Zr673       O692   2.425       .  S
Zr673       O700   2.450       .  S
Zr673       O688   2.467       .  S
Zr673       O679   2.407       .  S
Zr673       O680   2.398       .  S
Zr673       O681   2.377       .  S
Zr673       O682   2.390       .  S
Zr674       O693   2.439       .  S
Zr674       O686   2.433       .  S
Zr674       O687   2.366       .  S
Zr674       O680   2.387       .  S
Zr674       O681   2.384       .  S
Zr675       O677   2.433       .  S
Zr675       O699   2.439       .  S
Zr675       O701   2.398       .  S
Zr675       O679   2.399       .  S
Zr675       O682   2.392       .  S
Zr676       O702   2.435       .  S
Zr676       O703   2.439       .  S
Zr676       O678   2.437       .  S
Zr676       O679   2.392       .  S
Zr676       O680   2.389       .  S
O677        H714   0.990       .  S
O678        H709   0.990       .  S
O678        H723   0.990       .  S
O680        H706   0.966       .  S
O681       Zr691   2.370       .  S
O682       Zr691   2.376       .  S
O682        H707   0.965       .  S
C683       C1760   1.494       .  S
C684       C2012   1.479       .  S
C685       C1592   1.484       .  S
O686        H722   0.990       .  S
O687        C689   1.272       .  A
O688        C689   1.290       .  A
C689       C2145   1.469       .  S
O690       Zr691   2.438       .  S
O690        H719   0.990       .  S
Zr691       O694   2.435       .  S
Zr691       O695   2.442       .  S
Zr691       O696   2.448       .  S
O692        C697   1.283       .  A
O693        H710   0.990       .  S
O693        H725   0.990       .  S
O694        H711   0.990       .  S
O695        H715   0.990       .  S
O695        H724   0.990       .  S
O696        C697   1.287       .  A
C697       C1613   1.491       .  S
O698        H717   0.990       .  S
O698        H721   0.990       .  S
O699        H713   0.990       .  S
O699        H720   0.990       .  S
O700        C704   1.287       .  A
O701        C704   1.279       .  A
O702        H712   0.990       .  S
O703        H716   0.990       .  S
C704       C1564   1.479       .  S
Zr727       O728   2.440       .  S
Zr727       O729   2.464       .  S
Zr727       O730   2.450       .  S
Zr727       O733   2.430       .  S
Zr727       O735   2.381       .  S
Zr727       O736   2.383       .  S
Zr727       O737   2.416       .  S
Zr727       O738   2.412       .  S
O728        H784   0.990       .  S
O728        H792   0.990       .  S
O729        C749   1.289       .  A
O730        C751   1.285       .  A
O731       Zr741   2.452       .  S
O731        C750   1.287       .  A
O732       Zr740   2.404       .  S
O732        C751   1.279       .  A
O733        C750   1.284       .  A
O734       Zr742   2.403       .  S
O734        C749   1.280       .  A
O735       Zr740   2.386       .  S
O735       Zr742   2.380       .  S
O736       Zr741   2.390       .  S
O736       Zr742   2.383       .  S
O736        H771   0.966       .  S
O737       Zr740   2.398       .  S
O737       Zr757   2.412       .  S
O737        H774   0.966       .  S
O738       Zr741   2.384       .  S
O738       Zr757   2.399       .  S
Zr739       O764   2.438       .  S
Zr739       O758   2.415       .  S
Zr739       O766   2.450       .  S
Zr739       O754   2.483       .  S
Zr739       O745   2.401       .  S
Zr739       O746   2.408       .  S
Zr739       O747   2.383       .  S
Zr739       O748   2.397       .  S
Zr740       O759   2.441       .  S
Zr740       O752   2.435       .  S
Zr740       O753   2.405       .  S
Zr740       O746   2.394       .  S
Zr740       O747   2.393       .  S
Zr741       O743   2.436       .  S
Zr741       O765   2.437       .  S
Zr741       O767   2.430       .  S
Zr741       O745   2.399       .  S
Zr741       O748   2.395       .  S
Zr742       O768   2.436       .  S
Zr742       O769   2.437       .  S
Zr742       O744   2.436       .  S
Zr742       O745   2.379       .  S
Zr742       O746   2.398       .  S
O743        H780   0.990       .  S
O744        H775   0.990       .  S
O744        H789   0.990       .  S
O746        H772   0.965       .  S
O747       Zr757   2.369       .  S
O748       Zr757   2.375       .  S
O748        H773   0.965       .  S
C749       C1641   1.502       .  S
C750       C1872   1.489       .  S
C751       C1557   1.484       .  S
O752        H788   0.990       .  S
O753        C755   1.273       .  A
O754        C755   1.289       .  A
C755       C2033   1.498       .  S
O756       Zr757   2.436       .  S
O756        H785   0.990       .  S
Zr757       O760   2.435       .  S
Zr757       O761   2.438       .  S
Zr757       O762   2.450       .  S
O758        C763   1.281       .  A
O759        H776   0.990       .  S
O759        H791   0.990       .  S
O760        H777   0.990       .  S
O761        H781   0.990       .  S
O761        H790   0.989       .  S
O762        C763   1.287       .  A
C763       C1529   1.491       .  S
O764        H783   0.990       .  S
O764        H787   0.990       .  S
O765        H779   0.990       .  S
O765        H786   0.990       .  S
O766        C770   1.288       .  A
O767        C770   1.286       .  A
O768        H778   0.990       .  S
O769        H782   0.990       .  S
C770       C1585   1.490       .  S
Zr793       O794   2.441       .  S
Zr793       O795   2.446   1_545  S
Zr793       O796   2.487       .  S
Zr793       O799   2.452       .  S
Zr793       O801   2.387   1_545  S
Zr793       O802   2.399   1_545  S
Zr793       O803   2.406       .  S
Zr793       O804   2.407       .  S
O794        H850   0.990       .  S
O794        H858   0.990       .  S
O795        C815   1.286       .  A
O796        C817   1.292       .  A
O797       Zr807   2.446       .  S
O797        C816   1.289   1_565  A
O798       Zr806   2.388       .  S
O798        C817   1.276       .  A
O799        C816   1.289       .  A
O800       Zr808   2.460       .  S
O800        C815   1.288       .  A
O801       Zr806   2.400   1_565  S
O801       Zr808   2.379       .  S
O802       Zr807   2.390       .  S
O802       Zr808   2.375       .  S
O802        H837   0.966       .  S
O803       Zr806   2.396       .  S
O803       Zr823   2.396       .  S
O803        H840   0.966       .  S
O804       Zr807   2.405   1_545  S
O804       Zr823   2.391       .  S
Zr805       O830   2.440   1_546  S
Zr805       O824   2.481       .  S
Zr805       O832   2.414   1_545  S
Zr805       O820   2.456   1_556  S
Zr805       O811   2.424   1_545  S
Zr805       O812   2.413   1_545  S
Zr805       O813   2.374       .  S
Zr805       O814   2.376       .  S
Zr806       O825   2.434       .  S
Zr806       O818   2.437   1_556  S
Zr806       O819   2.414   1_556  S
Zr806       O812   2.383   1_545  S
Zr806       O813   2.396       .  S
Zr807       O809   2.430       .  S
Zr807       O831   2.433       .  S
Zr807       O833   2.479       .  S
Zr807       O811   2.393       .  S
Zr807       O814   2.373   1_565  S
Zr808       O834   2.435       .  S
Zr808       O835   2.435       .  S
Zr808       O810   2.438       .  S
Zr808       O811   2.412       .  S
Zr808       O812   2.412       .  S
O809        H846   0.990       .  S
O810        H841   0.991       .  S
O810        H855   0.990       .  S
O812        H838   0.966   1_556  S
O813       Zr823   2.381       .  S
O814       Zr823   2.374       .  S
O814        H839   0.963       .  S
C815       C1809   1.500       .  S
C816       C1417   1.506       .  S
C817       C2404   1.482       .  S
O818        H854   0.990   1_545  S
O819        C821   1.281       .  A
O820        C821   1.289       .  A
C821       C1445   1.490       .  S
O822       Zr823   2.435       .  S
O822        H851   0.990       .  S
Zr823       O826   2.437       .  S
Zr823       O827   2.436       .  S
Zr823       O828   2.428       .  S
O824        C829   1.292       .  A
O825        H842   0.990   1_556  S
O825        H857   0.989       .  S
O826        H843   0.990       .  S
O827        H847   0.990       .  S
O827        H856   0.990       .  S
O828        C829   1.282       .  A
C829       C1508   1.496       .  S
O830        H849   0.990       .  S
O830        H853   0.990       .  S
O831        H845   0.989       .  S
O831        H852   0.990       .  S
O832        C836   1.280       .  A
O833        C836   1.293       .  A
O834        H844   0.990       .  S
O835        H848   0.990       .  S
C836       C1473   1.509       .  S
Zr859       O860   2.440       .  S
Zr859       O861   2.449   1_545  S
Zr859       O862   2.466       .  S
Zr859       O865   2.432       .  S
Zr859       O867   2.382   1_545  S
Zr859       O868   2.393   1_545  S
Zr859       O869   2.411       .  S
Zr859       O870   2.404       .  S
O860        H916   0.990       .  S
O860        H924   0.990       .  S
O861        C881   1.287       .  A
O862        C883   1.288       .  A
O863       Zr873   2.427   1_545  S
O863        C882   1.285       .  A
O864       Zr872   2.394       .  S
O864        C883   1.277       .  A
O865        C882   1.285       .  A
O866       Zr874   2.457       .  S
O866        C881   1.288       .  A
O867       Zr872   2.399   1_565  S
O867       Zr874   2.377       .  S
O868       Zr873   2.386       .  S
O868       Zr874   2.375       .  S
O868        H903   0.966       .  S
O869       Zr872   2.395       .  S
O869       Zr889   2.400       .  S
O869        H906   0.966       .  S
O870       Zr873   2.402   1_545  S
O870       Zr889   2.385       .  S
Zr871       O896   2.438   1_545  S
Zr871       O890   2.470       .  S
Zr871       O898   2.416   1_545  S
Zr871       O886   2.444       .  S
Zr871       O877   2.416   1_545  S
Zr871       O878   2.412   1_545  S
Zr871       O879   2.375       .  S
Zr871       O880   2.375       .  S
Zr872       O891   2.436       .  S
Zr872       O884   2.436       .  S
Zr872       O885   2.415       .  S
Zr872       O878   2.389   1_545  S
Zr872       O879   2.388       .  S
Zr873       O875   2.436   1_565  S
Zr873       O897   2.435       .  S
Zr873       O899   2.470       .  S
Zr873       O877   2.390       .  S
Zr873       O880   2.369   1_565  S
Zr874       O900   2.435       .  S
Zr874       O901   2.436       .  S
Zr874       O876   2.438       .  S
Zr874       O877   2.410       .  S
Zr874       O878   2.415       .  S
O875        H912   0.990   1_545  S
O876        H907   0.990       .  S
O876        H921   0.990       .  S
O878        H904   0.966       .  S
O879       Zr889   2.376       .  S
O880       Zr889   2.376       .  S
O880        H905   0.963       .  S
C881       C1956   1.503       .  S
C882       C1452   1.482       .  S
C883       C2264   1.482       .  S
O884        H920   0.989   1_545  S
O885        C887   1.280       .  A
O886        C887   1.287       .  A
C887       C1424   1.483       .  S
O888       Zr889   2.437       .  S
O888        H917   0.990       .  S
Zr889       O892   2.437       .  S
Zr889       O893   2.435       .  S
Zr889       O894   2.424       .  S
O890        C895   1.290       .  A
O891        H908   0.990       .  S
O891        H923   0.989       .  S
O892        H909   0.990       .  S
O893        H913   0.990       .  S
O893        H922   0.990       .  S
O894        C895   1.282       .  A
C895       C1396   1.488       .  S
O896        H915   0.989       .  S
O896        H919   0.990       .  S
O897        H911   0.990       .  S
O897        H918   0.990       .  S
O898        C902   1.281       .  A
O899        C902   1.291       .  A
O900        H910   0.990       .  S
O901        H914   0.990       .  S
C902       C1368   1.509       .  S
Zr925       O926   2.440   1_556  S
Zr925       O927   2.436   1_455  S
Zr925       O928   2.479       .  S
Zr925       O931   2.445   1_556  S
Zr925       O933   2.378   1_455  S
Zr925       O934   2.399   1_455  S
Zr925       O935   2.408       .  S
Zr925       O936   2.403       .  S
O926        H982   0.990       .  S
O926        H990   0.990       .  S
O927        C947   1.284       .  A
O928        C949   1.291       .  A
O929       Zr939   2.424   1_554  S
O929        C948   1.285       .  A
O930       Zr938   2.400       .  S
O930        C949   1.277       .  A
O931        C948   1.288   1_455  A
O932       Zr940   2.453       .  S
O932        C947   1.287       .  A
O933       Zr938   2.402   1_655  S
O933       Zr940   2.375       .  S
O934       Zr939   2.398       .  S
O934       Zr940   2.374       .  S
O934        H969   0.966       .  S
O935       Zr938   2.395       .  S
O935       Zr955   2.396       .  S
O935        H972   0.966       .  S
O936       Zr939   2.399   1_455  S
O936       Zr955   2.380       .  S
Zr937       O962   2.442       .  S
Zr937       O956   2.488   1_655  S
Zr937       O964   2.418       .  S
Zr937       O952   2.455   1_655  S
Zr937       O943   2.418       .  S
Zr937       O944   2.420       .  S
Zr937       O945   2.381   1_655  S
Zr937       O946   2.378   1_655  S
Zr938       O957   2.435       .  S
Zr938       O950   2.436       .  S
Zr938       O951   2.423       .  S
Zr938       O944   2.397   1_455  S
Zr938       O945   2.396       .  S
Zr939       O941   2.435   1_556  S
Zr939       O963   2.434   1_556  S
Zr939       O965   2.469       .  S
Zr939       O943   2.387       .  S
Zr939       O946   2.378   1_655  S
Zr940       O966   2.435       .  S
Zr940       O967   2.437       .  S
Zr940       O942   2.438       .  S
Zr940       O943   2.415       .  S
Zr940       O944   2.413       .  S
O941        H978   0.990       .  S
O942        H973   0.990       .  S
O942        H987   0.990       .  S
O944        H970   0.965       .  S
O945       Zr955   2.386       .  S
O946       Zr955   2.387       .  S
O946        H971   0.965       .  S
C947       C2593   1.504       .  S
C948       C1305   1.490   1_655  S
C949       C1676   1.485       .  S
O950        H986   0.990       .  S
O951        C953   1.282       .  A
O952        C953   1.286       .  A
C953       C1277   1.490       .  S
O954       Zr955   2.435       .  S
O954        H983   0.990   1_556  S
Zr955       O958   2.434       .  S
Zr955       O959   2.438   1_556  S
Zr955       O960   2.411       .  S
O956        C961   1.293       .  A
O957        H974   0.990       .  S
O957        H989   0.990       .  S
O958        H975   0.991       .  S
O959        H979   0.990       .  S
O959        H988   0.990       .  S
O960        C961   1.279       .  A
C961       C1501   1.495       .  S
O962        H981   0.989       .  S
O962        H985   0.990       .  S
O963        H977   0.989   1_554  S
O963        H984   0.990       .  S
O964        C968   1.281       .  A
O965        C968   1.290       .  A
O966        H976   0.990       .  S
O967        H980   0.990       .  S
C968       C1340   1.504       .  S
Zr991       O992   2.436       .  S
Zr991       O993   2.424   1_455  S
Zr991       O994   2.480       .  S
Zr991       O997   2.449       .  S
Zr991       O999   2.382       .  S
Zr991      O1000   2.395   1_455  S
Zr991      O1001   2.402       .  S
Zr991      O1002   2.406       .  S
O992       H1048   0.990       .  S
O992       H1056   0.989       .  S
O993       C1013   1.282       .  A
O994       C1015   1.292       .  A
O995      Zr1005   2.418       .  S
O995       C1014   1.284   1_655  A
O996      Zr1004   2.410       .  S
O996       C1015   1.280       .  A
O997       C1014   1.289       .  A
O998      Zr1006   2.474       .  S
O998       C1013   1.292       .  A
O999      Zr1004   2.395       .  S
O999      Zr1006   2.369   1_455  S
O1000     Zr1005   2.393       .  S
O1000     Zr1006   2.363       .  S
O1000      H1035   0.967       .  S
O1001     Zr1004   2.390       .  S
O1001     Zr1021   2.394       .  S
O1001      H1038   0.967       .  S
O1002     Zr1005   2.404   1_455  S
O1002     Zr1021   2.385       .  S
Zr1003     O1028   2.442       .  S
Zr1003     O1022   2.484   1_655  S
Zr1003     O1030   2.435       .  S
Zr1003     O1018   2.456   1_655  S
Zr1003     O1009   2.422       .  S
Zr1003     O1010   2.425       .  S
Zr1003     O1011   2.381   1_655  S
Zr1003     O1012   2.378   1_655  S
Zr1004     O1023   2.434       .  S
Zr1004     O1016   2.433       .  S
Zr1004     O1017   2.422       .  S
Zr1004     O1010   2.394   1_455  S
Zr1004     O1011   2.389       .  S
Zr1005     O1007   2.435       .  S
Zr1005     O1029   2.438       .  S
Zr1005     O1031   2.463       .  S
Zr1005     O1009   2.388       .  S
Zr1005     O1012   2.383   1_655  S
Zr1006     O1032   2.435       .  S
Zr1006     O1033   2.435       .  S
Zr1006     O1008   2.434       .  S
Zr1006     O1009   2.413       .  S
Zr1006     O1010   2.413       .  S
O1007      H1044   0.990       .  S
O1008      H1039   0.990       .  S
O1008      H1053   0.989       .  S
O1010      H1036   0.965       .  S
O1011     Zr1021   2.381       .  S
O1012     Zr1021   2.388       .  S
O1012      H1037   0.965       .  S
C1013      C2432   1.502       .  S
C1014      C1284   1.485       .  S
C1015      C1781   1.498       .  S
O1016      H1052   0.990       .  S
O1017      C1019   1.282       .  A
O1018      C1019   1.287       .  A
C1019      C1312   1.490       .  S
O1020     Zr1021   2.434       .  S
O1020      H1049   0.990       .  S
Zr1021     O1024   2.436       .  S
Zr1021     O1025   2.439       .  S
Zr1021     O1026   2.393       .  S
O1022      C1027   1.292       .  A
O1023      H1040   0.990       .  S
O1023      H1055   0.990       .  S
O1024      H1041   0.990       .  S
O1025      H1045   0.990       .  S
O1025      H1054   0.990       .  S
O1026      C1027   1.275       .  A
C1027      C1389   1.488       .  S
O1028      H1047   0.990       .  S
O1028      H1051   0.990       .  S
O1029      H1043   0.990       .  S
O1029      H1050   0.990       .  S
O1030      C1034   1.284       .  A
O1031      C1034   1.289       .  A
O1032      H1042   0.990       .  S
O1033      H1046   0.990       .  S
C1034      C1256   1.505       .  S
Zr1057     O1058   2.441   1_556  S
Zr1057     O1059   2.466       .  S
Zr1057     O1060   2.462   1_556  S
Zr1057     O1063   2.427       .  S
Zr1057     O1065   2.384       .  S
Zr1057     O1066   2.377       .  S
Zr1057     O1067   2.415       .  S
Zr1057     O1068   2.415       .  S
O1058      H1114   0.990       .  S
O1058      H1122   0.988       .  S
O1059      C1079   1.288       .  A
O1060      C1081   1.288       .  A
O1061     Zr1071   2.448       .  S
O1061      C1080   1.288       .  A
O1062     Zr1070   2.411   1_554  S
O1062      C1081   1.280       .  A
O1063      C1080   1.283       .  A
O1064     Zr1072   2.419       .  S
O1064      C1079   1.280       .  A
O1065     Zr1070   2.400       .  S
O1065     Zr1072   2.390       .  S
O1066     Zr1071   2.373       .  S
O1066     Zr1072   2.374       .  S
O1066      H1101   0.966       .  S
O1067     Zr1070   2.394       .  S
O1067     Zr1087   2.406       .  S
O1067      H1104   0.965   1_556  S
O1068     Zr1071   2.383       .  S
O1068     Zr1087   2.409       .  S
Zr1069     O1094   2.439       .  S
Zr1069     O1088   2.432       .  S
Zr1069     O1096   2.463       .  S
Zr1069     O1084   2.484       .  S
Zr1069     O1075   2.412       .  S
Zr1069     O1076   2.403       .  S
Zr1069     O1077   2.382       .  S
Zr1069     O1078   2.395       .  S
Zr1070     O1089   2.438   1_556  S
Zr1070     O1082   2.434   1_556  S
Zr1070     O1083   2.398       .  S
Zr1070     O1076   2.392       .  S
Zr1070     O1077   2.397       .  S
Zr1071     O1073   2.429       .  S
Zr1071     O1095   2.437       .  S
Zr1071     O1097   2.409       .  S
Zr1071     O1075   2.407       .  S
Zr1071     O1078   2.387       .  S
Zr1072     O1098   2.437       .  S
Zr1072     O1099   2.435       .  S
Zr1072     O1074   2.437       .  S
Zr1072     O1075   2.388       .  S
Zr1072     O1076   2.393       .  S
O1073      H1110   0.990       .  S
O1074      H1105   0.990       .  S
O1074      H1119   0.990       .  S
O1076      H1102   0.966       .  S
O1077     Zr1087   2.377       .  S
O1078     Zr1087   2.371       .  S
O1078      H1103   0.966       .  S
C1079      C1480   1.488       .  S
C1080      C1333   1.502       .  S
C1081      C1221   1.492       .  S
O1082      H1118   0.990       .  S
O1083      C1085   1.278       .  A
O1084      C1085   1.293       .  A
C1085      C2173   1.489       .  S
O1086     Zr1087   2.440       .  S
O1086      H1115   0.990       .  S
Zr1087     O1090   2.436       .  S
Zr1087     O1091   2.440       .  S
Zr1087     O1092   2.458       .  S
O1088      C1093   1.283       .  A
O1089      H1106   0.990       .  S
O1089      H1121   0.990       .  S
O1090      H1107   0.989       .  S
O1091      H1111   0.990       .  S
O1091      H1120   0.990       .  S
O1092      C1093   1.288       .  A
C1093      C1536   1.494       .  S
O1094      H1113   0.990       .  S
O1094      H1117   0.989       .  S
O1095      H1109   0.990       .  S
O1095      H1116   0.990       .  S
O1096      C1100   1.291       .  A
O1097      C1100   1.281       .  A
O1098      H1108   0.990       .  S
O1099      H1112   0.990       .  S
C1100      C1193   1.491       .  S
Zr1123     O1124   2.446       .  S
Zr1123     O1125   2.470       .  S
Zr1123     O1126   2.448       .  S
Zr1123     O1129   2.414       .  S
Zr1123     O1131   2.381       .  S
Zr1123     O1132   2.378       .  S
Zr1123     O1133   2.419       .  S
Zr1123     O1134   2.414       .  S
O1124      H1180   0.991       .  S
O1124      H1188   0.991       .  S
O1125      C1145   1.289       .  A
O1126      C1147   1.283       .  A
O1127     Zr1137   2.470       .  S
O1127      C1146   1.290       .  A
O1128     Zr1136   2.412       .  S
O1128      C1147   1.278       .  A
O1129      C1146   1.281       .  A
O1130     Zr1138   2.413       .  S
O1130      C1145   1.280       .  A
O1131     Zr1136   2.399       .  S
O1131     Zr1138   2.385       .  S
O1132     Zr1137   2.383       .  S
O1132     Zr1138   2.387       .  S
O1132      H1167   0.964       .  S
O1133     Zr1136   2.399       .  S
O1133     Zr1153   2.404       .  S
O1133      H1170   0.964       .  S
O1134     Zr1137   2.385       .  S
O1134     Zr1153   2.407       .  S
Zr1135     O1160   2.439       .  S
Zr1135     O1154   2.433       .  S
Zr1135     O1162   2.457       .  S
Zr1135     O1150   2.491       .  S
Zr1135     O1141   2.410       .  S
Zr1135     O1142   2.403       .  S
Zr1135     O1143   2.374       .  S
Zr1135     O1144   2.399       .  S
Zr1136     O1155   2.437       .  S
Zr1136     O1148   2.435       .  S
Zr1136     O1149   2.409       .  S
Zr1136     O1142   2.395       .  S
Zr1136     O1143   2.394       .  S
Zr1137     O1139   2.435       .  S
Zr1137     O1161   2.437       .  S
Zr1137     O1163   2.419       .  S
Zr1137     O1141   2.413       .  S
Zr1137     O1144   2.401       .  S
Zr1138     O1164   2.435       .  S
Zr1138     O1165   2.436       .  S
Zr1138     O1140   2.437       .  S
Zr1138     O1141   2.391       .  S
Zr1138     O1142   2.397       .  S
O1139      H1176   0.990       .  S
O1140      H1171   0.990       .  S
O1140      H1185   0.990       .  S
O1142      H1168   0.967       .  S
O1143     Zr1153   2.368       .  S
O1144     Zr1153   2.372       .  S
O1144      H1169   0.966       .  S
C1145      C1361   1.496       .  S
C1146      C1249   1.499       .  S
C1147      C1200   1.475       .  S
O1148      H1184   0.990       .  S
O1149      C1151   1.280       .  A
O1150      C1151   1.295       .  A
C1151      C2068   1.505       .  S
O1152     Zr1153   2.440       .  S
O1152      H1181   0.991       .  S
Zr1153     O1156   2.438       .  S
Zr1153     O1157   2.435       .  S
Zr1153     O1158   2.452       .  S
O1154      C1159   1.284       .  A
O1155      H1172   0.990       .  S
O1155      H1187   0.989       .  S
O1156      H1173   0.990       .  S
O1157      H1177   0.990       .  S
O1157      H1186   0.989       .  S
O1158      C1159   1.287       .  A
C1159      C1620   1.499       .  S
O1160      H1179   0.991       .  S
O1160      H1183   0.990       .  S
O1161      H1175   0.990       .  S
O1161      H1182   0.989       .  S
O1162      C1166   1.289       .  A
O1163      C1166   1.284       .  A
O1164      H1174   0.990       .  S
O1165      H1178   0.990       .  S
C1166      C1228   1.489       .  S
C1189      C1190   1.412       .  A
C1189      C1194   1.412       .  A
C1189      C1207   1.451       .  S
C1190      C1195   1.496       .  S
C1190      C1191   1.408       .  A
C1191      C1192   1.407       .  A
C1191      C1196   1.452       .  S
C1192      C1193   1.419       .  A
C1192      C1208   1.451       .  S
C1193      C1194   1.415       .  A
C1194      C1197   1.450       .  S
C1195      C1198   1.412       .  A
C1195      C1202   1.414       .  A
C1196      N1213   1.157       .  T
C1197      N1215   1.157       .  T
C1198      C1199   1.407       .  A
C1198      C1203   1.452       .  S
C1199      C1200   1.412       .  A
C1199      C1205   1.452       .  S
C1200      C1201   1.408       .  A
C1201      C1202   1.411       .  A
C1201      C1204   1.450       .  S
C1202      C1206   1.449       .  S
C1203      N1210   1.157       .  T
C1204      N1211   1.157       .  T
C1205      N1209   1.157       .  T
C1206      N1212   1.157       .  T
C1207      N1216   1.157       .  T
C1208      N1214   1.157       .  T
C1217      C1218   1.410       .  A
C1217      C1222   1.412       .  A
C1217      C1235   1.451       .  S
C1218      C1223   1.498       .  S
C1218      C1219   1.409       .  A
C1219      C1220   1.411       .  A
C1219      C1224   1.451       .  S
C1220      C1221   1.417       .  A
C1220      C1236   1.450       .  S
C1221      C1222   1.418       .  A
C1222      C1225   1.451       .  S
C1223      C1226   1.408       .  A
C1223      C1230   1.413       .  A
C1224      N1241   1.157       .  T
C1225      N1243   1.157       .  T
C1226      C1227   1.409       .  A
C1226      C1231   1.452       .  S
C1227      C1228   1.417       .  A
C1227      C1233   1.451       .  S
C1228      C1229   1.415       .  A
C1229      C1230   1.414       .  A
C1229      C1232   1.451       .  S
C1230      C1234   1.450       .  S
C1231      N1238   1.157       .  T
C1232      N1239   1.158       .  T
C1233      N1237   1.157       .  T
C1234      N1240   1.157       .  T
C1235      N1244   1.157       .  T
C1236      N1242   1.157       .  T
C1245      C1246   1.415       .  A
C1245      C1250   1.417       .  A
C1245      C1263   1.451   1_565  S
C1246      C1251   1.509   1_565  S
C1246      C1247   1.411       .  A
C1247      C1248   1.413       .  A
C1247      C1252   1.450       .  S
C1248      C1249   1.419       .  A
C1248      C1264   1.452       .  S
C1249      C1250   1.415       .  A
C1250      C1253   1.449       .  S
C1251      C1254   1.410       .  A
C1251      C1258   1.414       .  A
C1252      N1269   1.157       .  T
C1253      N1271   1.157       .  T
C1254      C1255   1.414       .  A
C1254      C1259   1.451       .  S
C1255      C1256   1.419       .  A
C1255      C1261   1.451       .  S
C1256      C1257   1.418       .  A
C1257      C1258   1.419       .  A
C1257      C1260   1.449       .  S
C1258      C1262   1.451       .  S
C1259      N1266   1.157       .  T
C1260      N1267   1.157       .  T
C1261      N1265   1.157       .  T
C1262      N1268   1.157       .  T
C1263      N1272   1.157       .  T
C1264      N1270   1.157       .  T
C1273      C1274   1.411   1_655  A
C1273      C1278   1.412       .  A
C1273      C1291   1.451       .  S
C1274      C1279   1.498       .  S
C1274      C1275   1.410       .  A
C1275      C1276   1.411       .  A
C1275      C1280   1.451       .  S
C1276      C1277   1.415       .  A
C1276      C1292   1.449       .  S
C1277      C1278   1.417   1_455  A
C1278      C1281   1.451       .  S
C1279      C1282   1.413       .  A
C1279      C1286   1.410       .  A
C1280      N1297   1.157       .  T
C1281      N1299   1.157       .  T
C1282      C1283   1.413       .  A
C1282      C1287   1.450   1_455  S
C1283      C1284   1.413       .  A
C1283      C1289   1.451   1_455  S
C1284      C1285   1.416       .  A
C1285      C1286   1.409       .  A
C1285      C1288   1.452       .  S
C1286      C1290   1.451       .  S
C1287      N1294   1.157       .  T
C1288      N1295   1.157       .  T
C1289      N1293   1.158       .  T
C1290      N1296   1.157       .  T
C1291      N1300   1.157       .  T
C1292      N1298   1.157       .  T
C1301      C1302   1.412       .  A
C1301      C1306   1.414       .  A
C1301      C1319   1.451       .  S
C1302      C1307   1.499       .  S
C1302      C1303   1.410   1_455  A
C1303      C1304   1.408       .  A
C1303      C1308   1.450       .  S
C1304      C1305   1.415   1_655  A
C1304      C1320   1.452       .  S
C1305      C1306   1.417       .  A
C1306      C1309   1.451       .  S
C1307      C1310   1.409   1_455  A
C1307      C1314   1.413       .  A
C1308      N1325   1.157       .  T
C1309      N1327   1.157       .  T
C1310      C1311   1.407       .  A
C1310      C1315   1.452       .  S
C1311      C1312   1.416   1_655  A
C1311      C1317   1.451       .  S
C1312      C1313   1.414       .  A
C1313      C1314   1.417       .  A
C1313      C1316   1.449       .  S
C1314      C1318   1.450       .  S
C1315      N1322   1.157       .  T
C1316      N1323   1.157       .  T
C1317      N1321   1.157       .  T
C1318      N1324   1.157       .  T
C1319      N1328   1.157       .  T
C1320      N1326   1.157       .  T
C1329      C1330   1.410       .  A
C1329      C1334   1.416       .  A
C1329      C1347   1.450       .  S
C1330      C1335   1.502   1_565  S
C1330      C1331   1.408       .  A
C1331      C1332   1.412       .  A
C1331      C1336   1.452       .  S
C1332      C1333   1.423       .  A
C1332      C1348   1.451       .  S
C1333      C1334   1.419       .  A
C1334      C1337   1.449       .  S
C1335      C1338   1.411       .  A
C1335      C1342   1.406       .  A
C1336      N1353   1.157   1_565  T
C1337      N1355   1.157       .  T
C1338      C1339   1.418       .  A
C1338      C1343   1.450       .  S
C1339      C1340   1.419       .  A
C1339      C1345   1.449       .  S
C1340      C1341   1.424       .  A
C1341      C1342   1.410       .  A
C1341      C1344   1.451       .  S
C1342      C1346   1.453       .  S
C1343      N1350   1.157       .  T
C1344      N1351   1.157       .  T
C1345      N1349   1.157       .  T
C1346      N1352   1.157       .  T
C1347      N1356   1.157   1_565  T
C1348      N1354   1.157       .  T
C1357      C1358   1.412       .  A
C1357      C1362   1.415       .  A
C1357      C1375   1.451       .  S
C1358      C1363   1.506   1_655  S
C1358      C1359   1.412       .  A
C1359      C1360   1.413       .  A
C1359      C1364   1.450       .  S
C1360      C1361   1.416       .  A
C1360      C1376   1.451       .  S
C1361      C1362   1.418       .  A
C1362      C1365   1.450       .  S
C1363      C1366   1.407       .  A
C1363      C1370   1.412       .  A
C1364      N1381   1.157   1_655  T
C1365      N1383   1.157       .  T
C1366      C1367   1.412       .  A
C1366      C1371   1.453       .  S
C1367      C1368   1.426       .  A
C1367      C1373   1.451       .  S
C1368      C1369   1.420       .  A
C1369      C1370   1.419       .  A
C1369      C1372   1.449       .  S
C1370      C1374   1.450       .  S
C1371      N1378   1.157       .  T
C1372      N1379   1.157       .  T
C1373      N1377   1.157   1_565  T
C1374      N1380   1.157       .  T
C1375      N1384   1.157       .  T
C1376      N1382   1.157       .  T
C1385      C1386   1.413       .  A
C1385      C1390   1.413       .  A
C1385      C1403   1.450       .  S
C1386      C1391   1.502       .  S
C1386      C1387   1.411       .  A
C1387      C1388   1.413       .  A
C1387      C1392   1.451       .  S
C1388      C1389   1.414       .  A
C1388      C1404   1.448       .  S
C1389      C1390   1.414       .  A
C1390      C1393   1.451       .  S
C1391      C1394   1.413       .  A
C1391      C1398   1.408       .  A
C1392      N1409   1.157       .  T
C1393      N1411   1.157       .  T
C1394      C1395   1.417       .  A
C1394      C1399   1.449       .  S
C1395      C1396   1.412       .  A
C1395      C1401   1.449       .  S
C1396      C1397   1.417       .  A
C1397      C1398   1.410       .  A
C1397      C1400   1.449       .  S
C1398      C1402   1.452       .  S
C1399      N1406   1.157       .  T
C1400      N1407   1.157       .  T
C1401      N1405   1.157       .  T
C1402      N1408   1.157       .  T
C1403      N1412   1.157       .  T
C1404      N1410   1.156       .  T
C1413      C1414   1.410       .  A
C1413      C1418   1.416       .  A
C1413      C1431   1.452       .  S
C1414      C1419   1.500       .  S
C1414      C1415   1.406       .  A
C1415      C1416   1.413       .  A
C1415      C1420   1.451       .  S
C1416      C1417   1.422       .  A
C1416      C1432   1.449       .  S
C1417      C1418   1.422       .  A
C1418      C1421   1.450       .  S
C1419      C1422   1.411   1_545  A
C1419      C1426   1.412       .  A
C1420      N1437   1.157       .  T
C1421      N1439   1.158       .  T
C1422      C1423   1.410       .  A
C1422      C1427   1.450       .  S
C1423      C1424   1.412   1_565  A
C1423      C1429   1.451       .  S
C1424      C1425   1.414       .  A
C1425      C1426   1.413       .  A
C1425      C1428   1.451       .  S
C1426      C1430   1.450       .  S
C1427      N1434   1.157       .  T
C1428      N1435   1.157       .  T
C1429      N1433   1.157       .  T
C1430      N1436   1.157       .  T
C1431      N1440   1.157       .  T
C1432      N1438   1.157       .  T
C1441      C1442   1.411       .  A
C1441      C1446   1.410       .  A
C1441      C1459   1.452   1_545  S
C1442      C1447   1.497       .  S
C1442      C1443   1.410       .  A
C1443      C1444   1.413       .  A
C1443      C1448   1.450       .  S
C1444      C1445   1.417       .  A
C1444      C1460   1.450       .  S
C1445      C1446   1.414       .  A
C1446      C1449   1.450   1_545  S
C1447      C1450   1.414       .  A
C1447      C1454   1.411       .  A
C1448      N1465   1.157       .  T
C1449      N1467   1.157       .  T
C1450      C1451   1.410       .  A
C1450      C1455   1.451       .  S
C1451      C1452   1.412       .  A
C1451      C1457   1.452   1_545  S
C1452      C1453   1.414       .  A
C1453      C1454   1.410       .  A
C1453      C1456   1.451       .  S
C1454      C1458   1.450       .  S
C1455      N1462   1.157   1_545  T
C1456      N1463   1.157       .  T
C1457      N1461   1.158       .  T
C1458      N1464   1.157       .  T
C1459      N1468   1.157       .  T
C1460      N1466   1.157       .  T
C1469      C1470   1.413       .  A
C1469      C1474   1.419       .  A
C1469      C1487   1.450       .  S
C1470      C1475   1.506   1_455  S
C1470      C1471   1.406       .  A
C1471      C1472   1.413       .  A
C1471      C1476   1.452       .  S
C1472      C1473   1.426       .  A
C1472      C1488   1.450       .  S
C1473      C1474   1.418       .  A
C1474      C1477   1.449       .  S
C1475      C1478   1.414       .  A
C1475      C1482   1.412       .  A
C1476      N1493   1.157   1_556  T
C1477      N1495   1.157       .  T
C1478      C1479   1.417       .  A
C1478      C1483   1.449   1_556  S
C1479      C1480   1.411       .  A
C1479      C1485   1.449   1_556  S
C1480      C1481   1.415       .  A
C1481      C1482   1.412       .  A
C1481      C1484   1.451       .  S
C1482      C1486   1.451       .  S
C1483      N1490   1.157   1_655  T
C1484      N1491   1.157       .  T
C1485      N1489   1.157       .  T
C1486      N1492   1.157       .  T
C1487      N1496   1.157       .  T
C1488      N1494   1.157   1_565  T
C1497      C1498   1.415       .  A
C1497      C1502   1.418       .  A
C1497      C1515   1.450       .  S
C1498      C1503   1.513       .  S
C1498      C1499   1.412       .  A
C1499      C1500   1.417       .  A
C1499      C1504   1.450       .  S
C1500      C1501   1.416       .  A
C1500      C1516   1.450       .  S
C1501      C1502   1.413       .  A
C1502      C1505   1.450       .  S
C1503      C1506   1.415       .  A
C1503      C1510   1.412       .  A
C1504      N1521   1.157       .  T
C1505      N1523   1.157       .  T
C1506      C1507   1.419       .  A
C1506      C1511   1.449       .  S
C1507      C1508   1.411       .  A
C1507      C1513   1.448   1_556  S
C1508      C1509   1.417       .  A
C1509      C1510   1.416       .  A
C1509      C1512   1.450       .  S
C1510      C1514   1.450       .  S
C1511      N1518   1.157   1_556  T
C1512      N1519   1.157       .  T
C1513      N1517   1.157       .  T
C1514      N1520   1.157       .  T
C1515      N1524   1.157       .  T
C1516      N1522   1.157       .  T
C1525      C1526   1.409       .  A
C1525      C1530   1.409       .  A
C1525      C1543   1.451       .  S
C1526      C1531   1.500       .  S
C1526      C1527   1.411       .  A
C1527      C1528   1.415       .  A
C1527      C1532   1.450       .  S
C1528      C1529   1.417       .  A
C1528      C1544   1.450       .  S
C1529      C1530   1.417       .  A
C1530      C1533   1.451       .  S
C1531      C1534   1.409       .  A
C1531      C1538   1.412       .  A
C1532      N1549   1.157       .  T
C1533      N1551   1.157       .  T
C1534      C1535   1.413       .  A
C1534      C1539   1.451       .  S
C1535      C1536   1.419       .  A
C1535      C1541   1.449       .  S
C1536      C1537   1.413       .  A
C1537      C1538   1.414       .  A
C1537      C1540   1.449       .  S
C1538      C1542   1.451       .  S
C1539      N1546   1.157       .  T
C1540      N1547   1.157       .  T
C1541      N1545   1.156       .  T
C1542      N1548   1.157       .  T
C1543      N1552   1.157       .  T
C1544      N1550   1.157       .  T
C1553      C1554   1.407       .  A
C1553      C1558   1.402       .  A
C1553      C1571   1.453       .  S
C1554      C1559   1.492       .  S
C1554      C1555   1.413       .  A
C1555      C1556   1.415       .  A
C1555      C1560   1.450       .  S
C1556      C1557   1.414       .  A
C1556      C1572   1.450       .  S
C1557      C1558   1.416       .  A
C1558      C1561   1.453       .  S
C1559      C1562   1.411       .  A
C1559      C1566   1.411       .  A
C1560      N1577   1.157       .  T
C1561      N1579   1.157       .  T
C1562      C1563   1.412       .  A
C1562      C1567   1.450       .  S
C1563      C1564   1.413       .  A
C1563      C1569   1.450       .  S
C1564      C1565   1.414       .  A
C1565      C1566   1.404       .  A
C1565      C1568   1.452       .  S
C1566      C1570   1.452       .  S
C1567      N1574   1.157       .  T
C1568      N1575   1.157       .  T
C1569      N1573   1.157       .  T
C1570      N1576   1.157       .  T
C1571      N1580   1.157       .  T
C1572      N1578   1.157       .  T
C1581      C1582   1.411       .  A
C1581      C1586   1.414       .  A
C1581      C1599   1.451       .  S
C1582      C1587   1.496       .  S
C1582      C1583   1.408       .  A
C1583      C1584   1.408       .  A
C1583      C1588   1.452       .  S
C1584      C1585   1.417       .  A
C1584      C1600   1.450       .  S
C1585      C1586   1.416       .  A
C1586      C1589   1.450       .  S
C1587      C1590   1.412   1_556  A
C1587      C1594   1.409   1_556  A
C1588      N1605   1.157       .  T
C1589      N1607   1.158       .  T
C1590      C1591   1.412       .  A
C1590      C1595   1.450   1_554  S
C1591      C1592   1.414       .  A
C1591      C1597   1.450       .  S
C1592      C1593   1.417       .  A
C1593      C1594   1.408       .  A
C1593      C1596   1.452       .  S
C1594      C1598   1.451       .  S
C1595      N1602   1.157       .  T
C1596      N1603   1.157       .  T
C1597      N1601   1.157       .  T
C1598      N1604   1.157   1_554  T
C1599      N1608   1.157       .  T
C1600      N1606   1.157       .  T
C1609      C1610   1.413       .  A
C1609      C1614   1.414       .  A
C1609      C1627   1.451       .  S
C1610      C1615   1.502       .  S
C1610      C1611   1.411       .  A
C1611      C1612   1.411       .  A
C1611      C1616   1.451       .  S
C1612      C1613   1.416       .  A
C1612      C1628   1.451       .  S
C1613      C1614   1.415       .  A
C1614      C1617   1.450       .  S
C1615      C1618   1.409       .  A
C1615      C1622   1.412       .  A
C1616      N1633   1.157       .  T
C1617      N1635   1.157       .  T
C1618      C1619   1.413       .  A
C1618      C1623   1.451       .  S
C1619      C1620   1.418       .  A
C1619      C1625   1.449       .  S
C1620      C1621   1.420       .  A
C1621      C1622   1.415       .  A
C1621      C1624   1.452       .  S
C1622      C1626   1.452       .  S
C1623      N1630   1.157       .  T
C1624      N1631   1.158       .  T
C1625      N1629   1.157       .  T
C1626      N1632   1.157       .  T
C1627      N1636   1.157       .  T
C1628      N1634   1.157       .  T
C1637      C1638   1.410       .  A
C1637      C1642   1.406       .  A
C1637      C1655   1.452       .  S
C1638      C1643   1.504       .  S
C1638      C1639   1.417       .  A
C1639      C1640   1.418       .  A
C1639      C1644   1.450       .  S
C1640      C1641   1.416       .  A
C1640      C1656   1.450       .  S
C1641      C1642   1.417       .  A
C1642      C1645   1.451       .  S
C1643      C1646   1.416       .  A
C1643      C1650   1.413       .  A
C1644      N1661   1.157       .  T
C1645      N1663   1.157       .  T
C1646      C1647   1.416       .  A
C1646      C1651   1.450       .  S
C1647      C1648   1.413       .  A
C1647      C1653   1.449       .  S
C1648      C1649   1.415       .  A
C1649      C1650   1.407       .  A
C1649      C1652   1.453       .  S
C1650      C1654   1.451       .  S
C1651      N1658   1.157       .  T
C1652      N1659   1.157       .  T
C1653      N1657   1.157       .  T
C1654      N1660   1.157       .  T
C1655      N1664   1.157       .  T
C1656      N1662   1.158       .  T
C1665      C1666   1.416       .  A
C1665      C1670   1.417       .  A
C1665      C1683   1.451       .  S
C1666      C1671   1.512       .  S
C1666      C1667   1.412       .  A
C1667      C1668   1.417       .  A
C1667      C1672   1.451       .  S
C1668      C1669   1.417       .  A
C1668      C1684   1.449       .  S
C1669      C1670   1.413       .  A
C1670      C1673   1.449       .  S
C1671      C1674   1.415       .  A
C1671      C1678   1.415       .  A
C1672      N1689   1.157       .  T
C1673      N1691   1.157       .  T
C1674      C1675   1.414       .  A
C1674      C1679   1.450       .  S
C1675      C1676   1.411       .  A
C1675      C1681   1.450       .  S
C1676      C1677   1.412       .  A
C1677      C1678   1.414       .  A
C1677      C1680   1.451       .  S
C1678      C1682   1.449       .  S
C1679      N1686   1.157       .  T
C1680      N1687   1.157   1_455  T
C1681      N1685   1.157       .  T
C1682      N1688   1.157       .  T
C1683      N1692   1.157       .  T
C1684      N1690   1.157       .  T
C1693      C1694   1.410       .  A
C1693      C1698   1.413       .  A
C1693      C1711   1.452       .  S
C1694      C1699   1.503       .  S
C1694      C1695   1.411       .  A
C1695      C1696   1.416       .  A
C1695      C1700   1.450       .  S
C1696      C1697   1.416       .  A
C1696      C1712   1.449       .  S
C1697      C1698   1.418       .  A
C1698      C1701   1.450       .  S
C1699      C1702   1.409       .  A
C1699      C1706   1.414       .  A
C1700      N1717   1.157       .  T
C1701      N1719   1.157       .  T
C1702      C1703   1.411       .  A
C1702      C1707   1.451       .  S
C1703      C1704   1.419       .  A
C1703      C1709   1.451       .  S
C1704      C1705   1.413       .  A
C1705      C1706   1.414       .  A
C1705      C1708   1.451       .  S
C1706      C1710   1.449       .  S
C1707      N1714   1.157       .  T
C1708      N1715   1.157       .  T
C1709      N1713   1.157       .  T
C1710      N1716   1.157       .  T
C1711      N1720   1.157       .  T
C1712      N1718   1.157       .  T
C1721      C1722   1.410       .  A
C1721      C1726   1.409       .  A
C1721      C1739   1.452       .  S
C1722      C1727   1.493   1_554  S
C1722      C1723   1.409       .  A
C1723      C1724   1.410       .  A
C1723      C1728   1.450       .  S
C1724      C1725   1.415       .  A
C1724      C1740   1.451       .  S
C1725      C1726   1.415       .  A
C1726      C1729   1.450       .  S
C1727      C1730   1.410       .  A
C1727      C1734   1.407       .  A
C1728      N1745   1.157   1_554  T
C1729      N1747   1.157       .  T
C1730      C1731   1.409       .  A
C1730      C1735   1.451       .  S
C1731      C1732   1.415       .  A
C1731      C1737   1.450       .  S
C1732      C1733   1.420       .  A
C1733      C1734   1.410       .  A
C1733      C1736   1.451       .  S
C1734      C1738   1.451       .  S
C1735      N1742   1.157   1_556  T
C1736      N1743   1.157       .  T
C1737      N1741   1.157       .  T
C1738      N1744   1.157       .  T
C1739      N1748   1.157   1_554  T
C1740      N1746   1.157       .  T
C1749      C1750   1.414       .  A
C1749      C1754   1.415       .  A
C1749      C1767   1.451       .  S
C1750      C1755   1.500       .  S
C1750      C1751   1.407       .  A
C1751      C1752   1.406       .  A
C1751      C1756   1.453       .  S
C1752      C1753   1.423       .  A
C1752      C1768   1.452       .  S
C1753      C1754   1.418       .  A
C1754      C1757   1.450       .  S
C1755      C1758   1.411       .  A
C1755      C1762   1.412       .  A
C1756      N1773   1.157       .  T
C1757      N1775   1.157       .  T
C1758      C1759   1.413       .  A
C1758      C1763   1.451       .  S
C1759      C1760   1.419       .  A
C1759      C1765   1.451       .  S
C1760      C1761   1.418       .  A
C1761      C1762   1.409       .  A
C1761      C1764   1.450       .  S
C1762      C1766   1.453       .  S
C1763      N1770   1.157       .  T
C1764      N1771   1.157       .  T
C1765      N1769   1.157       .  T
C1766      N1772   1.157       .  T
C1767      N1776   1.157       .  T
C1768      N1774   1.157       .  T
C1777      C1778   1.412       .  A
C1777      C1782   1.419       .  A
C1777      C1795   1.449       .  S
C1778      C1783   1.507       .  S
C1778      C1779   1.411       .  A
C1779      C1780   1.413       .  A
C1779      C1784   1.451       .  S
C1780      C1781   1.417       .  A
C1780      C1796   1.451       .  S
C1781      C1782   1.415       .  A
C1782      C1785   1.448       .  S
C1783      C1786   1.412       .  A
C1783      C1790   1.406       .  A
C1784      N1801   1.157       .  T
C1785      N1803   1.157       .  T
C1786      C1787   1.419       .  A
C1786      C1791   1.450       .  S
C1787      C1788   1.423       .  A
C1787      C1793   1.450       .  S
C1788      C1789   1.429       .  A
C1789      C1790   1.412       .  A
C1789      C1792   1.453       .  S
C1790      C1794   1.452       .  S
C1791      N1798   1.157       .  T
C1792      N1799   1.158       .  T
C1793      N1797   1.157       .  T
C1794      N1800   1.157       .  T
C1795      N1804   1.157       .  T
C1796      N1802   1.157       .  T
C1805      C1806   1.413       .  A
C1805      C1810   1.417       .  A
C1805      C1823   1.450       .  S
C1806      C1811   1.512       .  S
C1806      C1807   1.414       .  A
C1807      C1808   1.418       .  A
C1807      C1812   1.450       .  S
C1808      C1809   1.414       .  A
C1808      C1824   1.449       .  S
C1809      C1810   1.417       .  A
C1810      C1813   1.451       .  S
C1811      C1814   1.412       .  A
C1811      C1818   1.413       .  A
C1812      N1829   1.157       .  T
C1813      N1831   1.157       .  T
C1814      C1815   1.416       .  A
C1814      C1819   1.451       .  S
C1815      C1816   1.417       .  A
C1815      C1821   1.449       .  S
C1816      C1817   1.417       .  A
C1817      C1818   1.420       .  A
C1817      C1820   1.449       .  S
C1818      C1822   1.449       .  S
C1819      N1826   1.157       .  T
C1820      N1827   1.157       .  T
C1821      N1825   1.157       .  T
C1822      N1828   1.157       .  T
C1823      N1832   1.157       .  T
C1824      N1830   1.157       .  T
C1833      C1834   1.404       .  A
C1833      C1838   1.408       .  A
C1833      C1851   1.453       .  S
C1834      C1839   1.502       .  S
C1834      C1835   1.414       .  A
C1835      C1836   1.419       .  A
C1835      C1840   1.449       .  S
C1836      C1837   1.417       .  A
C1836      C1852   1.449       .  S
C1837      C1838   1.425       .  A
C1838      C1841   1.450       .  S
C1839      C1842   1.411       .  A
C1839      C1846   1.410       .  A
C1840      N1857   1.157       .  T
C1841      N1859   1.156       .  T
C1842      C1843   1.414       .  A
C1842      C1847   1.451       .  S
C1843      C1844   1.416       .  A
C1843      C1849   1.449       .  S
C1844      C1845   1.416       .  A
C1845      C1846   1.414       .  A
C1845      C1848   1.450       .  S
C1846      C1850   1.450       .  S
C1847      N1854   1.157       .  T
C1848      N1855   1.157       .  T
C1849      N1853   1.156       .  T
C1850      N1856   1.157       .  T
C1851      N1860   1.157       .  T
C1852      N1858   1.157       .  T
C1861      C1862   1.417       .  A
C1861      C1866   1.418       .  A
C1861      C1879   1.449       .  S
C1862      C1867   1.508       .  S
C1862      C1863   1.412       .  A
C1863      C1864   1.410       .  A
C1863      C1868   1.451       .  S
C1864      C1865   1.415       .  A
C1864      C1880   1.451       .  S
C1865      C1866   1.410       .  A
C1866      C1869   1.448       .  S
C1867      C1870   1.415       .  A
C1867      C1874   1.416       .  A
C1868      N1885   1.157       .  T
C1869      N1887   1.157       .  T
C1870      C1871   1.414       .  A
C1870      C1875   1.450       .  S
C1871      C1872   1.412       .  A
C1871      C1877   1.450       .  S
C1872      C1873   1.411       .  A
C1873      C1874   1.414       .  A
C1873      C1876   1.449       .  S
C1874      C1878   1.450       .  S
C1875      N1882   1.157       .  T
C1876      N1883   1.157       .  T
C1877      N1881   1.157       .  T
C1878      N1884   1.157       .  T
C1879      N1888   1.157       .  T
C1880      N1886   1.157       .  T
C1889      C1890   1.409       .  A
C1889      C1894   1.409       .  A
C1889      C1907   1.451       .  S
C1890      C1895   1.493       .  S
C1890      C1891   1.409       .  A
C1891      C1892   1.410       .  A
C1891      C1896   1.451       .  S
C1892      C1893   1.417       .  A
C1892      C1908   1.450       .  S
C1893      C1894   1.415       .  A
C1894      C1897   1.450       .  S
C1895      C1898   1.406       .  A
C1895      C1902   1.411       .  A
C1896      N1913   1.157       .  T
C1897      N1915   1.157       .  T
C1898      C1899   1.407       .  A
C1898      C1903   1.452       .  S
C1899      C1900   1.420       .  A
C1899      C1905   1.452       .  S
C1900      C1901   1.417       .  A
C1901      C1902   1.414       .  A
C1901      C1904   1.449       .  S
C1902      C1906   1.451       .  S
C1903      N1910   1.157       .  T
C1904      N1911   1.157       .  T
C1905      N1909   1.157       .  T
C1906      N1912   1.157       .  T
C1907      N1916   1.157       .  T
C1908      N1914   1.157       .  T
C1917      C1918   1.408   1_554  A
C1917      C1922   1.407       .  A
C1917      C1935   1.452   1_554  S
C1918      C1923   1.494       .  S
C1918      C1919   1.412   1_556  A
C1919      C1920   1.411       .  A
C1919      C1924   1.451   1_554  S
C1920      C1921   1.411       .  A
C1920      C1936   1.447       .  S
C1921      C1922   1.418       .  A
C1922      C1925   1.452       .  S
C1923      C1926   1.409       .  A
C1923      C1930   1.409       .  A
C1924      N1941   1.157       .  T
C1925      N1943   1.157       .  T
C1926      C1927   1.410       .  A
C1926      C1931   1.452       .  S
C1927      C1928   1.418       .  A
C1927      C1933   1.450       .  S
C1928      C1929   1.418       .  A
C1929      C1930   1.409       .  A
C1929      C1932   1.452       .  S
C1930      C1934   1.451       .  S
C1931      N1938   1.157       .  T
C1932      N1939   1.157       .  T
C1933      N1937   1.157       .  T
C1934      N1940   1.157       .  T
C1935      N1944   1.157       .  T
C1936      N1942   1.156       .  T
C1945      C1946   1.412       .  A
C1945      C1950   1.416       .  A
C1945      C1963   1.450       .  S
C1946      C1951   1.513       .  S
C1946      C1947   1.415       .  A
C1947      C1948   1.419       .  A
C1947      C1952   1.449       .  S
C1948      C1949   1.413       .  A
C1948      C1964   1.449       .  S
C1949      C1950   1.414       .  A
C1950      C1953   1.448       .  S
C1951      C1954   1.415       .  A
C1951      C1958   1.412       .  A
C1952      N1969   1.157       .  T
C1953      N1971   1.156       .  T
C1954      C1955   1.418       .  A
C1954      C1959   1.450       .  S
C1955      C1956   1.415       .  A
C1955      C1961   1.451       .  S
C1956      C1957   1.418       .  A
C1957      C1958   1.419       .  A
C1957      C1960   1.450       .  S
C1958      C1962   1.450       .  S
C1959      N1966   1.157       .  T
C1960      N1967   1.157       .  T
C1961      N1965   1.157       .  T
C1962      N1968   1.157       .  T
C1963      N1972   1.157       .  T
C1964      N1970   1.157       .  T
C1973      C1974   1.416       .  A
C1973      C1978   1.413       .  A
C1973      C1991   1.450       .  S
C1974      C1979   1.499       .  S
C1974      C1975   1.412       .  A
C1975      C1976   1.406       .  A
C1975      C1980   1.452       .  S
C1976      C1977   1.412       .  A
C1976      C1992   1.451       .  S
C1977      C1978   1.409       .  A
C1978      C1981   1.449       .  S
C1979      C1982   1.415       .  A
C1979      C1986   1.411       .  A
C1980      N1997   1.157       .  T
C1981      N1999   1.157       .  T
C1982      C1983   1.412       .  A
C1982      C1987   1.450       .  S
C1983      C1984   1.410       .  A
C1983      C1989   1.450       .  S
C1984      C1985   1.413       .  A
C1985      C1986   1.407       .  A
C1985      C1988   1.448       .  S
C1986      C1990   1.453       .  S
C1987      N1994   1.157       .  T
C1988      N1995   1.156       .  T
C1989      N1993   1.157       .  T
C1990      N1996   1.157       .  T
C1991      N2000   1.157       .  T
C1992      N1998   1.157       .  T
C2001      C2002   1.413       .  A
C2001      C2006   1.418       .  A
C2001      C2019   1.451       .  S
C2002      C2007   1.496       .  S
C2002      C2003   1.404       .  A
C2003      C2004   1.402       .  A
C2003      C2008   1.454       .  S
C2004      C2005   1.422       .  A
C2004      C2020   1.450       .  S
C2005      C2006   1.418       .  A
C2006      C2009   1.446       .  S
C2007      C2010   1.410       .  A
C2007      C2014   1.415       .  A
C2008      N2025   1.157       .  T
C2009      N2027   1.156       .  T
C2010      C2011   1.409       .  A
C2010      C2015   1.451       .  S
C2011      C2012   1.415       .  A
C2011      C2017   1.451       .  S
C2012      C2013   1.411       .  A
C2013      C2014   1.408       .  A
C2013      C2016   1.452       .  S
C2014      C2018   1.452       .  S
C2015      N2022   1.157       .  T
C2016      N2023   1.157       .  T
C2017      N2021   1.157       .  T
C2018      N2024   1.157       .  T
C2019      N2028   1.157       .  T
C2020      N2026   1.156       .  T
C2029      C2030   1.412       .  A
C2029      C2034   1.415       .  A
C2029      C2047   1.450       .  S
C2030      C2035   1.512       .  S
C2030      C2031   1.416       .  A
C2031      C2032   1.417       .  A
C2031      C2036   1.450       .  S
C2032      C2033   1.415       .  A
C2032      C2048   1.451       .  S
C2033      C2034   1.418       .  A
C2034      C2037   1.451       .  S
C2035      C2038   1.412       .  A
C2035      C2042   1.417       .  A
C2036      N2053   1.157       .  T
C2037      N2055   1.157       .  T
C2038      C2039   1.413       .  A
C2038      C2043   1.450       .  S
C2039      C2040   1.415       .  A
C2039      C2045   1.451       .  S
C2040      C2041   1.411       .  A
C2041      C2042   1.419       .  A
C2041      C2044   1.448       .  S
C2042      C2046   1.449       .  S
C2043      N2050   1.157       .  T
C2044      N2051   1.157       .  T
C2045      N2049   1.157       .  T
C2046      N2052   1.157       .  T
C2047      N2056   1.157       .  T
C2048      N2054   1.157       .  T
C2057      C2058   1.411       .  A
C2057      C2062   1.419       .  A
C2057      C2075   1.452       .  S
C2058      C2063   1.518       .  S
C2058      C2059   1.414       .  A
C2059      C2060   1.421       .  A
C2059      C2064   1.450       .  S
C2060      C2061   1.421       .  A
C2060      C2076   1.450       .  S
C2061      C2062   1.428       .  A
C2062      C2065   1.451       .  S
C2063      C2066   1.414       .  A
C2063      C2070   1.417       .  A
C2064      N2081   1.157       .  T
C2065      N2083   1.157       .  T
C2066      C2067   1.417       .  A
C2066      C2071   1.451       .  S
C2067      C2068   1.419       .  A
C2067      C2073   1.451       .  S
C2068      C2069   1.414       .  A
C2069      C2070   1.421       .  A
C2069      C2072   1.448       .  S
C2070      C2074   1.449       .  S
C2071      N2078   1.157       .  T
C2072      N2079   1.157       .  T
C2073      N2077   1.157       .  T
C2074      N2080   1.157       .  T
C2075      N2084   1.157       .  T
C2076      N2082   1.157       .  T
C2085      C2086   1.409       .  A
C2085      C2090   1.411       .  A
C2085      C2103   1.452       .  S
C2086      C2091   1.502       .  S
C2086      C2087   1.413       .  A
C2087      C2088   1.414       .  A
C2087      C2092   1.450       .  S
C2088      C2089   1.413       .  A
C2088      C2104   1.448       .  S
C2089      C2090   1.420       .  A
C2090      C2093   1.450       .  S
C2091      C2094   1.412       .  A
C2091      C2098   1.412       .  A
C2092      N2109   1.157       .  T
C2093      N2111   1.157       .  T
C2094      C2095   1.413       .  A
C2094      C2099   1.450       .  S
C2095      C2096   1.414       .  A
C2095      C2101   1.450       .  S
C2096      C2097   1.415       .  A
C2097      C2098   1.412       .  A
C2097      C2100   1.450       .  S
C2098      C2102   1.451       .  S
C2099      N2106   1.157       .  T
C2100      N2107   1.157       .  T
C2101      N2105   1.157       .  T
C2102      N2108   1.157       .  T
C2103      N2112   1.157       .  T
C2104      N2110   1.157       .  T
C2113      C2114   1.411       .  A
C2113      C2118   1.413       .  A
C2113      C2131   1.451       .  S
C2114      C2119   1.504       .  S
C2114      C2115   1.412       .  A
C2115      C2116   1.415       .  A
C2115      C2120   1.450       .  S
C2116      C2117   1.417       .  A
C2116      C2132   1.451       .  S
C2117      C2118   1.417       .  A
C2118      C2121   1.451       .  S
C2119      C2122   1.409       .  A
C2119      C2126   1.415       .  A
C2120      N2137   1.157       .  T
C2121      N2139   1.157       .  T
C2122      C2123   1.411       .  A
C2122      C2127   1.451       .  S
C2123      C2124   1.420       .  A
C2123      C2129   1.452       .  S
C2124      C2125   1.413       .  A
C2125      C2126   1.415       .  A
C2125      C2128   1.451       .  S
C2126      C2130   1.449       .  S
C2127      N2134   1.157       .  T
C2128      N2135   1.158       .  T
C2129      N2133   1.157       .  T
C2130      N2136   1.157       .  T
C2131      N2140   1.157       .  T
C2132      N2138   1.157       .  T
C2141      C2142   1.409       .  A
C2141      C2146   1.407       .  A
C2141      C2159   1.451       .  S
C2142      C2147   1.492       .  S
C2142      C2143   1.414       .  A
C2143      C2144   1.409       .  A
C2143      C2148   1.451       .  S
C2144      C2145   1.411       .  A
C2144      C2160   1.452       .  S
C2145      C2146   1.412       .  A
C2146      C2149   1.450       .  S
C2147      C2150   1.407       .  A
C2147      C2154   1.414       .  A
C2148      N2165   1.157       .  T
C2149      N2167   1.157       .  T
C2150      C2151   1.404       .  A
C2150      C2155   1.452       .  S
C2151      C2152   1.417       .  A
C2151      C2157   1.452       .  S
C2152      C2153   1.410       .  A
C2153      C2154   1.412       .  A
C2153      C2156   1.449       .  S
C2154      C2158   1.450       .  S
C2155      N2162   1.157       .  T
C2156      N2163   1.157       .  T
C2157      N2161   1.157       .  T
C2158      N2164   1.157       .  T
C2159      N2168   1.157       .  T
C2160      N2166   1.157       .  T
C2169      C2170   1.415       .  A
C2169      C2174   1.418       .  A
C2169      C2187   1.449       .  S
C2170      C2175   1.510   1_556  S
C2170      C2171   1.413       .  A
C2171      C2172   1.414       .  A
C2171      C2176   1.450       .  S
C2172      C2173   1.413       .  A
C2172      C2188   1.451       .  S
C2173      C2174   1.412       .  A
C2174      C2177   1.449       .  S
C2175      C2178   1.411   1_554  A
C2175      C2182   1.415       .  A
C2176      N2193   1.157       .  T
C2177      N2195   1.157       .  T
C2178      C2179   1.415   1_556  A
C2178      C2183   1.450       .  S
C2179      C2180   1.416       .  A
C2179      C2185   1.450   1_554  S
C2180      C2181   1.413       .  A
C2181      C2182   1.417       .  A
C2181      C2184   1.449       .  S
C2182      C2186   1.450       .  S
C2183      N2190   1.157       .  T
C2184      N2191   1.157       .  T
C2185      N2189   1.157       .  T
C2186      N2192   1.157       .  T
C2187      N2196   1.157       .  T
C2188      N2194   1.157       .  T
C2197      C2198   1.404       .  A
C2197      C2202   1.413       .  A
C2197      C2215   1.452       .  S
C2198      C2203   1.508       .  S
C2198      C2199   1.413       .  A
C2199      C2200   1.422       .  A
C2199      C2204   1.451       .  S
C2200      C2201   1.422       .  A
C2200      C2216   1.449       .  S
C2201      C2202   1.430       .  A
C2202      C2205   1.452       .  S
C2203      C2206   1.411       .  A
C2203      C2210   1.414       .  A
C2204      N2221   1.157       .  T
C2205      N2223   1.157       .  T
C2206      C2207   1.413       .  A
C2206      C2211   1.451       .  S
C2207      C2208   1.416       .  A
C2207      C2213   1.450       .  S
C2208      C2209   1.411       .  A
C2209      C2210   1.417       .  A
C2209      C2212   1.449       .  S
C2210      C2214   1.448       .  S
C2211      N2218   1.157       .  T
C2212      N2219   1.157       .  T
C2213      N2217   1.157       .  T
C2214      N2220   1.157       .  T
C2215      N2224   1.157       .  T
C2216      N2222   1.157       .  T
C2225      C2226   1.406       .  A
C2225      C2230   1.407       .  A
C2225      C2243   1.451       .  S
C2226      C2231   1.493   1_565  S
C2226      C2227   1.412       .  A
C2227      C2228   1.411       .  A
C2227      C2232   1.451   1_565  S
C2228      C2229   1.414       .  A
C2228      C2244   1.448       .  S
C2229      C2230   1.419       .  A
C2230      C2233   1.452       .  S
C2231      C2234   1.410       .  A
C2231      C2238   1.413       .  A
C2232      N2249   1.157       .  T
C2233      N2251   1.157       .  T
C2234      C2235   1.410       .  A
C2234      C2239   1.451       .  S
C2235      C2236   1.413       .  A
C2235      C2241   1.451       .  S
C2236      C2237   1.408       .  A
C2237      C2238   1.407       .  A
C2237      C2240   1.452       .  S
C2238      C2242   1.451       .  S
C2239      N2246   1.157       .  T
C2240      N2247   1.157       .  T
C2241      N2245   1.157       .  T
C2242      N2248   1.157   1_545  T
C2243      N2252   1.157       .  T
C2244      N2250   1.157       .  T
C2253      C2254   1.412       .  A
C2253      C2258   1.416       .  A
C2253      C2271   1.452       .  S
C2254      C2259   1.507       .  S
C2254      C2255   1.406       .  A
C2255      C2256   1.413       .  A
C2255      C2260   1.453       .  S
C2256      C2257   1.432       .  A
C2256      C2272   1.452       .  S
C2257      C2258   1.423       .  A
C2258      C2261   1.450       .  S
C2259      C2262   1.414       .  A
C2259      C2266   1.416       .  A
C2260      N2277   1.157       .  T
C2261      N2279   1.157       .  T
C2262      C2263   1.413       .  A
C2262      C2267   1.450       .  S
C2263      C2264   1.412       .  A
C2263      C2269   1.450       .  S
C2264      C2265   1.413       .  A
C2265      C2266   1.410       .  A
C2265      C2268   1.453       .  S
C2266      C2270   1.451       .  S
C2267      N2274   1.157       .  T
C2268      N2275   1.158   1_545  T
C2269      N2273   1.157       .  T
C2270      N2276   1.157       .  T
C2271      N2280   1.157       .  T
C2272      N2278   1.157       .  T
C2281      C2282   1.409       .  A
C2281      C2286   1.411       .  A
C2281      C2299   1.452       .  S
C2282      C2287   1.493       .  S
C2282      C2283   1.409       .  A
C2283      C2284   1.409       .  A
C2283      C2288   1.451       .  S
C2284      C2285   1.415       .  A
C2284      C2300   1.449       .  S
C2285      C2286   1.417       .  A
C2286      C2289   1.451       .  S
C2287      C2290   1.408       .  A
C2287      C2294   1.410       .  A
C2288      N2305   1.157       .  T
C2289      N2307   1.157       .  T
C2290      C2291   1.410       .  A
C2290      C2295   1.451       .  S
C2291      C2292   1.417       .  A
C2291      C2297   1.451       .  S
C2292      C2293   1.416       .  A
C2293      C2294   1.409       .  A
C2293      C2296   1.451       .  S
C2294      C2298   1.451       .  S
C2295      N2302   1.157       .  T
C2296      N2303   1.157       .  T
C2297      N2301   1.157       .  T
C2298      N2304   1.157       .  T
C2299      N2308   1.157       .  T
C2300      N2306   1.157       .  T
C2309      C2310   1.410       .  A
C2309      C2314   1.406       .  A
C2309      C2327   1.452       .  S
C2310      C2315   1.487       .  S
C2310      C2311   1.410       .  A
C2311      C2312   1.407       .  A
C2311      C2316   1.451       .  S
C2312      C2313   1.412       .  A
C2312      C2328   1.452       .  S
C2313      C2314   1.413       .  A
C2314      C2317   1.452       .  S
C2315      C2318   1.409       .  A
C2315      C2322   1.410       .  A
C2316      N2333   1.157       .  T
C2317      N2335   1.157       .  T
C2318      C2319   1.404       .  A
C2318      C2323   1.452       .  S
C2319      C2320   1.413       .  A
C2319      C2325   1.450       .  S
C2320      C2321   1.415       .  A
C2321      C2322   1.410       .  A
C2321      C2324   1.451       .  S
C2322      C2326   1.451       .  S
C2323      N2330   1.157       .  T
C2324      N2331   1.157       .  T
C2325      N2329   1.157       .  T
C2326      N2332   1.157       .  T
C2327      N2336   1.157       .  T
C2328      N2334   1.157       .  T
C2337      C2338   1.406       .  A
C2337      C2342   1.406       .  A
C2337      C2355   1.454       .  S
C2338      C2343   1.499       .  S
C2338      C2339   1.413       .  A
C2339      C2340   1.418       .  A
C2339      C2344   1.450       .  S
C2340      C2341   1.415       .  A
C2340      C2356   1.448       .  S
C2341      C2342   1.424       .  A
C2342      C2345   1.452       .  S
C2343      C2346   1.410       .  A
C2343      C2350   1.412       .  A
C2344      N2361   1.157       .  T
C2345      N2363   1.157       .  T
C2346      C2347   1.408       .  A
C2346      C2351   1.452       .  S
C2347      C2348   1.415       .  A
C2347      C2353   1.449       .  S
C2348      C2349   1.415       .  A
C2349      C2350   1.412       .  A
C2349      C2352   1.451       .  S
C2350      C2354   1.450       .  S
C2351      N2358   1.157       .  T
C2352      N2359   1.157       .  T
C2353      N2357   1.156       .  T
C2354      N2360   1.157       .  T
C2355      N2364   1.157       .  T
C2356      N2362   1.157       .  T
C2365      C2366   1.407       .  A
C2365      C2370   1.407       .  A
C2365      C2383   1.451       .  S
C2366      C2371   1.491   1_545  S
C2366      C2367   1.412       .  A
C2367      C2368   1.410       .  A
C2367      C2372   1.450       .  S
C2368      C2369   1.410       .  A
C2368      C2384   1.450       .  S
C2369      C2370   1.417       .  A
C2370      C2373   1.452       .  S
C2371      C2374   1.406       .  A
C2371      C2378   1.411       .  A
C2372      N2389   1.157   1_545  T
C2373      N2391   1.157       .  T
C2374      C2375   1.407       .  A
C2374      C2379   1.451       .  S
C2375      C2376   1.418       .  A
C2375      C2381   1.451       .  S
C2376      C2377   1.414       .  A
C2377      C2378   1.412       .  A
C2377      C2380   1.449       .  S
C2378      C2382   1.451   1_565  S
C2379      N2386   1.157       .  T
C2380      N2387   1.157       .  T
C2381      N2385   1.157       .  T
C2382      N2388   1.157       .  T
C2383      N2392   1.157       .  T
C2384      N2390   1.157       .  T
C2393      C2394   1.405       .  A
C2393      C2398   1.412       .  A
C2393      C2411   1.452       .  S
C2394      C2399   1.502       .  S
C2394      C2395   1.413   1_556  A
C2395      C2396   1.418       .  A
C2395      C2400   1.450       .  S
C2396      C2397   1.416       .  A
C2396      C2412   1.449       .  S
C2397      C2398   1.424   1_554  A
C2398      C2401   1.451       .  S
C2399      C2402   1.412       .  A
C2399      C2406   1.411       .  A
C2400      N2417   1.157       .  T
C2401      N2419   1.157       .  T
C2402      C2403   1.413       .  A
C2402      C2407   1.450       .  S
C2403      C2404   1.412       .  A
C2403      C2409   1.450       .  S
C2404      C2405   1.414       .  A
C2405      C2406   1.413       .  A
C2405      C2408   1.451       .  S
C2406      C2410   1.450       .  S
C2407      N2414   1.157   1_556  T
C2408      N2415   1.157       .  T
C2409      N2413   1.157       .  T
C2410      N2416   1.157       .  T
C2411      N2420   1.157       .  T
C2412      N2418   1.157       .  T
C2421      C2422   1.413       .  A
C2421      C2426   1.414       .  A
C2421      C2439   1.449       .  S
C2422      C2427   1.511       .  S
C2422      C2423   1.415       .  A
C2423      C2424   1.419       .  A
C2423      C2428   1.449       .  S
C2424      C2425   1.414       .  A
C2424      C2440   1.450       .  S
C2425      C2426   1.413       .  A
C2426      C2429   1.451       .  S
C2427      C2430   1.413       .  A
C2427      C2434   1.412       .  A
C2428      N2445   1.157       .  T
C2429      N2447   1.157       .  T
C2430      C2431   1.419       .  A
C2430      C2435   1.451       .  S
C2431      C2432   1.419       .  A
C2431      C2437   1.451       .  S
C2432      C2433   1.415       .  A
C2433      C2434   1.416       .  A
C2433      C2436   1.450       .  S
C2434      C2438   1.449       .  S
C2435      N2442   1.157       .  T
C2436      N2443   1.157       .  T
C2437      N2441   1.158   1_655  T
C2438      N2444   1.157       .  T
C2439      N2448   1.157       .  T
C2440      N2446   1.157       .  T
C2449      C2450   1.410       .  A
C2449      C2454   1.410       .  A
C2449      C2467   1.452       .  S
C2450      C2455   1.497       .  S
C2450      C2451   1.411       .  A
C2451      C2452   1.413       .  A
C2451      C2456   1.450       .  S
C2452      C2453   1.411       .  A
C2452      C2468   1.450       .  S
C2453      C2454   1.414       .  A
C2454      C2457   1.450       .  S
C2455      C2458   1.406       .  A
C2455      C2462   1.412       .  A
C2456      N2473   1.157       .  T
C2457      N2475   1.157       .  T
C2458      C2459   1.409       .  A
C2458      C2463   1.453       .  S
C2459      C2460   1.422       .  A
C2459      C2465   1.451       .  S
C2460      C2461   1.415       .  A
C2461      C2462   1.413       .  A
C2461      C2464   1.450       .  S
C2462      C2466   1.450       .  S
C2463      N2470   1.157       .  T
C2464      N2471   1.157       .  T
C2465      N2469   1.157       .  T
C2466      N2472   1.157       .  T
C2467      N2476   1.157       .  T
C2468      N2474   1.157       .  T
C2477      C2478   1.406       .  A
C2477      C2482   1.405       .  A
C2477      C2495   1.453       .  S
C2478      C2483   1.490       .  S
C2478      C2479   1.411       .  A
C2479      C2480   1.411       .  A
C2479      C2484   1.451       .  S
C2480      C2481   1.415       .  A
C2480      C2496   1.450       .  S
C2481      C2482   1.422       .  A
C2482      C2485   1.452       .  S
C2483      C2486   1.409       .  A
C2483      C2490   1.410       .  A
C2484      N2501   1.157       .  T
C2485      N2503   1.157       .  T
C2486      C2487   1.406       .  A
C2486      C2491   1.452       .  S
C2487      C2488   1.414       .  A
C2487      C2493   1.451       .  S
C2488      C2489   1.412       .  A
C2489      C2490   1.410       .  A
C2489      C2492   1.450       .  S
C2490      C2494   1.450       .  S
C2491      N2498   1.157       .  T
C2492      N2499   1.157       .  T
C2493      N2497   1.157       .  T
C2494      N2500   1.157       .  T
C2495      N2504   1.157       .  T
C2496      N2502   1.157       .  T
C2505      C2506   1.420       .  A
C2505      C2510   1.418       .  A
C2505      C2523   1.449   1_655  S
C2506      C2511   1.502   1_655  S
C2506      C2507   1.413       .  A
C2507      C2508   1.400       .  A
C2507      C2512   1.453       .  S
C2508      C2509   1.412       .  A
C2508      C2524   1.453       .  S
C2509      C2510   1.411       .  A
C2510      C2513   1.450       .  S
C2511      C2514   1.414       .  A
C2511      C2518   1.420       .  A
C2512      N2529   1.157       .  T
C2513      N2531   1.158       .  T
C2514      C2515   1.401       .  A
C2514      C2519   1.452       .  S
C2515      C2516   1.410       .  A
C2515      C2521   1.454       .  S
C2516      C2517   1.407       .  A
C2517      C2518   1.416       .  A
C2517      C2520   1.449       .  S
C2518      C2522   1.448       .  S
C2519      N2526   1.157       .  T
C2520      N2527   1.157       .  T
C2521      N2525   1.157       .  T
C2522      N2528   1.157   1_455  T
C2523      N2532   1.157       .  T
C2524      N2530   1.157       .  T
C2533      C2534   1.407       .  A
C2533      C2538   1.406       .  A
C2533      C2551   1.451       .  S
C2534      C2539   1.494       .  S
C2534      C2535   1.411       .  A
C2535      C2536   1.414       .  A
C2535      C2540   1.450       .  S
C2536      C2537   1.415       .  A
C2536      C2552   1.450       .  S
C2537      C2538   1.416       .  A
C2538      C2541   1.451       .  S
C2539      C2542   1.412       .  A
C2539      C2546   1.408       .  A
C2540      N2557   1.157       .  T
C2541      N2559   1.157       .  T
C2542      C2543   1.413       .  A
C2542      C2547   1.449       .  S
C2543      C2544   1.413       .  A
C2543      C2549   1.450       .  S
C2544      C2545   1.416       .  A
C2545      C2546   1.407       .  A
C2545      C2548   1.451       .  S
C2546      C2550   1.452       .  S
C2547      N2554   1.157       .  T
C2548      N2555   1.157       .  T
C2549      N2553   1.157       .  T
C2550      N2556   1.157       .  T
C2551      N2560   1.157       .  T
C2552      N2558   1.157       .  T
C2561      C2562   1.406       .  A
C2561      C2566   1.407       .  A
C2561      C2579   1.452       .  S
C2562      C2567   1.493       .  S
C2562      C2563   1.411       .  A
C2563      C2564   1.413       .  A
C2563      C2568   1.450       .  S
C2564      C2565   1.417       .  A
C2564      C2580   1.451       .  S
C2565      C2566   1.418       .  A
C2566      C2569   1.449       .  S
C2567      C2570   1.410       .  A
C2567      C2574   1.410       .  A
C2568      N2585   1.157       .  T
C2569      N2587   1.157       .  T
C2570      C2571   1.410       .  A
C2570      C2575   1.451       .  S
C2571      C2572   1.415       .  A
C2571      C2577   1.451       .  S
C2572      C2573   1.414       .  A
C2573      C2574   1.409       .  A
C2573      C2576   1.451       .  S
C2574      C2578   1.451       .  S
C2575      N2582   1.157       .  T
C2576      N2583   1.157       .  T
C2577      N2581   1.157       .  T
C2578      N2584   1.157       .  T
C2579      N2588   1.157       .  T
C2580      N2586   1.157       .  T
C2589      C2590   1.410       .  A
C2589      C2594   1.415       .  A
C2589      C2607   1.451       .  S
C2590      C2595   1.504       .  S
C2590      C2591   1.409       .  A
C2591      C2592   1.416       .  A
C2591      C2596   1.451       .  S
C2592      C2593   1.420   1_554  A
C2592      C2608   1.449       .  S
C2593      C2594   1.421   1_556  A
C2594      C2597   1.451   1_554  S
C2595      C2598   1.410       .  A
C2595      C2602   1.413       .  A
C2596      N2613   1.157       .  T
C2597      N2615   1.157   1_655  T
C2598      C2599   1.412       .  A
C2598      C2603   1.450   1_554  S
C2599      C2600   1.417       .  A
C2599      C2605   1.451       .  S
C2600      C2601   1.415       .  A
C2601      C2602   1.416       .  A
C2601      C2604   1.450       .  S
C2602      C2606   1.450       .  S
C2603      N2610   1.157       .  T
C2604      N2611   1.157       .  T
C2605      N2609   1.157   1_554  T
C2606      N2612   1.157       .  T
C2607      N2616   1.157       .  T
C2608      N2614   1.157   1_554  T
C2617      C2618   1.411       .  A
C2617      C2622   1.412       .  A
C2617      C2635   1.451       .  S
C2618      C2623   1.498       .  S
C2618      C2619   1.409       .  A
C2619      C2620   1.408       .  A
C2619      C2624   1.451       .  S
C2620      C2621   1.420       .  A
C2620      C2636   1.452       .  S
C2621      C2622   1.420       .  A
C2622      C2625   1.451       .  S
C2623      C2626   1.409       .  A
C2623      C2630   1.412       .  A
C2624      N2641   1.157       .  T
C2625      N2643   1.157       .  T
C2626      C2627   1.408       .  A
C2626      C2631   1.451       .  S
C2627      C2628   1.419       .  A
C2627      C2633   1.452       .  S
C2628      C2629   1.417       .  A
C2629      C2630   1.413       .  A
C2629      C2632   1.449       .  S
C2630      C2634   1.452       .  S
C2631      N2638   1.157       .  T
C2632      N2639   1.157       .  T
C2633      N2637   1.157       .  T
C2634      N2640   1.157       .  T
C2635      N2644   1.157       .  T
C2636      N2642   1.157       .  T
C2645      C2646   1.411       .  A
C2645      C2650   1.406       .  A
C2645      C2663   1.453       .  S
C2646      C2651   1.500       .  S
C2646      C2647   1.416       .  A
C2647      C2648   1.414       .  A
C2647      C2652   1.449       .  S
C2648      C2649   1.410       .  A
C2648      C2664   1.450       .  S
C2649      C2650   1.417       .  A
C2650      C2653   1.453       .  S
C2651      C2654   1.414       .  A
C2651      C2658   1.412       .  A
C2652      N2669   1.157       .  T
C2653      N2671   1.157       .  T
C2654      C2655   1.412       .  A
C2654      C2659   1.452       .  S
C2655      C2656   1.412       .  A
C2655      C2661   1.450       .  S
C2656      C2657   1.413       .  A
C2657      C2658   1.411       .  A
C2657      C2660   1.451       .  S
C2658      C2662   1.451       .  S
C2659      N2666   1.157       .  T
C2660      N2667   1.157       .  T
C2661      N2665   1.157       .  T
C2662      N2668   1.157       .  T
C2663      N2672   1.157       .  T
C2664      N2670   1.157       .  T
C2673      C2674   1.413       .  A
C2673      C2678   1.412       .  A
C2673      C2691   1.450       .  S
C2674      C2679   1.501   1_455  S
C2674      C2675   1.416       .  A
C2675      C2676   1.410       .  A
C2675      C2680   1.451       .  S
C2676      C2677   1.409       .  A
C2676      C2692   1.451       .  S
C2677      C2678   1.413       .  A
C2678      C2681   1.451       .  S
C2679      C2682   1.411       .  A
C2679      C2686   1.416       .  A
C2680      N2697   1.157   1_455  T
C2681      N2699   1.157       .  T
C2682      C2683   1.409       .  A
C2682      C2687   1.451       .  S
C2683      C2684   1.416       .  A
C2683      C2689   1.452       .  S
C2684      C2685   1.409       .  A
C2685      C2686   1.412       .  A
C2685      C2688   1.449       .  S
C2686      C2690   1.450   1_655  S
C2687      N2694   1.157       .  T
C2688      N2695   1.157       .  T
C2689      N2693   1.157       .  T
C2690      N2696   1.157       .  T
C2691      N2700   1.157       .  T
C2692      N2698   1.157       .  T
