geometry optimzed in LAMMPS
_audit_creation_date              2020-12-01 
_audit_creation_method            'lammps2cif' 
_symmetry_space_group_name_H-M    'P1' 
_symmetry_Int_Tables_number       1 
_symmetry_cell_setting            triclinic 
loop_ 
_symmetry_equiv_pos_as_xyz 
  x,y,z 
_cell_length_a                    28.88079752 
_cell_length_b                    29.164402833754526 
_cell_length_c                    80.07043972702043 
_cell_angle_alpha                 90.7136309781093 
_cell_angle_beta                  89.57269270881692 
_cell_angle_gamma                 118.45284989877746 
loop_ 
_atom_site_label 
_atom_site_type_symbol 
_atom_site_fract_x 
_atom_site_fract_y 
_atom_site_fract_z 
_atom_site_charge 
Zn1        Zn  0.20369041  0.41278954  0.37182980     1.49700
Zn2        Zn  0.20790633  0.30526439  0.37225001     1.49400
Zn3        Zn  0.16784925  0.34272700  0.40310837     1.49100
Zn4        Zn  0.09680631  0.30441778  0.37175201     1.49500
O5          O  0.16910342  0.34125490  0.37942457    -1.84000
O6          O  0.26023521  0.42286902  0.35583627    -0.74600
O7          O  0.23489395  0.28202738  0.39191100    -0.74500
O8          O  0.19904939  0.41167852  0.41217665    -0.74000
O9          O  0.26618452  0.34995452  0.35676156    -0.74600
O10         O  0.23253338  0.46536314  0.39074083    -0.74200
O11         O  0.20766978  0.31247713  0.41324944    -0.74800
O12         O  0.04371349  0.27316761  0.39056715    -0.74200
O13         O  0.16442920  0.24629442  0.35666710    -0.75000
O14         O  0.09746181  0.30733609  0.41220535    -0.74400
O15         O  0.09036119  0.25130150  0.35493541    -0.74800
O16         O  0.08065944  0.35072513  0.35764418    -0.74700
O17         O  0.15557313  0.42529748  0.35715858    -0.74500
C18         C  0.27911146  0.39411500  0.35040133     0.77300
C19         C  0.23179964  0.28923093  0.40753929     0.77700
C20         C  0.22514658  0.45676186  0.40632496     0.76700
C21         C  0.05187072  0.28056972  0.40622611     0.77100
C22         C  0.12068878  0.23396558  0.34963123     0.78200
C23         C  0.10915995  0.39611599  0.35183195     0.77300
Zn24       Zn  0.08050789  0.04469351  0.26695078     1.49700
Zn25       Zn  0.45833516  0.03398741  0.26574705     1.49400
Zn26       Zn  0.99519229  0.50153630  0.23559964     1.49100
Zn27       Zn  0.46491317  0.43081629  0.26566776     1.49500
O28         O  0.99797908  0.50343443  0.25939488    -1.84000
O29         O  0.09078177  0.10364929  0.28205553    -0.74600
O30         O  0.43488928  0.06171337  0.24642095    -0.74500
O31         O  0.07929828  0.03632589  0.22611296    -0.74000
O32         O  0.01579900  0.10690724  0.28039774    -0.74600
O33         O  0.13307334  0.06814396  0.24792633    -0.74200
O34         O  0.47050608  0.03998215  0.22507785    -0.74800
O35         O  0.44096862  0.37971920  0.24628151    -0.74200
O36         O  0.40788495  0.49576784  0.28245886    -0.75000
O37         O  0.46220067  0.43461631  0.22506488    -0.74400
O38         O  0.40591506  0.41881688  0.28114141    -0.74800
O39         O  0.00786819  0.42041106  0.28305028    -0.74700
O40         O  0.08424665  0.49332626  0.28231466    -0.74500
C41         C  0.06068071  0.12180276  0.28693952     0.77300
C42         C  0.44434478  0.06109940  0.23087014     0.77700
C43         C  0.12508400  0.05968098  0.23227536     0.76700
C44         C  0.44215056  0.38888716  0.23072964     0.77100
C45         C  0.39107121  0.44960875  0.28768800     0.78200
C46         C  0.05386299  0.44925809  0.28870863     0.77300
C47         C  0.16536395  0.32914486  0.81213823     0.45600
H48         H  0.16368830  0.32843555  0.82598382    -0.03400
C49         C  0.16768251  0.32878463  0.77974262     0.45600
H50         H  0.16837559  0.32800961  0.76585562    -0.03400
C51         C  0.13962907  0.36107464  0.80387233    -0.17100
C52         C  0.22351351  0.35516712  0.80460759    -0.16900
C53         C  0.13538490  0.27231411  0.80397156    -0.17300
C54         C  0.14173332  0.35937101  0.78670410    -0.17200
C55         C  0.22203535  0.35334430  0.78740987    -0.16800
C56         C  0.13803602  0.27470456  0.78687155    -0.17100
C57         C  0.50440401  0.00310611  0.82503810     0.45600
H58         H  0.50505712  0.00294927  0.81118421    -0.03400
C59         C  0.50350994  0.00360658  0.85751165     0.45600
H60         H  0.00072944  0.00106509  0.87001358    -0.03400
C61         C  0.03183043  0.05823291  0.83187518    -0.17100
C62         C  0.43976956  0.47256995  0.83217937    -0.16900
C63         C  0.03172418  0.47179674  0.83390919    -0.17300
C64         C  0.03001140  0.05552245  0.84901362    -0.17200
C65         C  0.44148566  0.47246948  0.84934739    -0.16800
C66         C  0.03036767  0.47245178  0.85108716    -0.17100
C67         C  0.17085243  0.34940143  0.52505226     0.45600
H68         H  0.17293982  0.35407078  0.53883618    -0.03400
C69         C  0.16650433  0.33776648  0.49272068     0.45600
H70         H  0.16480700  0.33278530  0.47893787    -0.03400
C71         C  0.19596626  0.31660981  0.51890832    -0.17100
C72         C  0.11454100  0.32149337  0.51858906    -0.16900
C73         C  0.19819915  0.40095445  0.51567514    -0.17300
C74         C  0.19544832  0.31044664  0.50179839    -0.17200
C75         C  0.11019744  0.31452344  0.50148877    -0.16800
C76         C  0.19754085  0.39691757  0.49870064    -0.17100
C77         C  0.32535989  0.16066026  0.44913410     0.45600
H78         H  0.32461157  0.15871608  0.43527410    -0.03400
C79         C  0.32796701  0.16476537  0.48158487     0.45600
H80         H  0.32888612  0.16633181  0.49543909    -0.03400
C81         C  0.30067238  0.10746982  0.45707378    -0.17100
C82         C  0.38076662  0.18959846  0.45591001    -0.16900
C83         C  0.29700216  0.18888010  0.45629113    -0.17300
C84         C  0.29983624  0.10719543  0.47408450    -0.17200
C85         C  0.38468860  0.19212953  0.47304375    -0.16800
C86         C  0.29713394  0.19187433  0.47349825    -0.17100
Zn87       Zn  0.25452464  0.12468548  0.58669323     1.49700
Zn88       Zn  0.36109603  0.23265102  0.58717009     1.49400
Zn89       Zn  0.32353162  0.16107511  0.61625559     1.49100
Zn90       Zn  0.36684596  0.12568951  0.58792821     1.49500
O91         O  0.32703270  0.16119770  0.59317721    -1.84000
O92         O  0.23706570  0.17054204  0.57255994    -0.74600
O93         O  0.39040936  0.28032747  0.60758990    -0.74500
O94         O  0.25976545  0.16238427  0.62405321    -0.74000
O95         O  0.31088710  0.24643995  0.57376918    -0.74600
O96         O  0.20631310  0.09886800  0.60710155    -0.74200
O97         O  0.38354957  0.22131693  0.62601493    -0.74800
O98         O  0.38789072  0.10240507  0.60954441    -0.74200
O99         O  0.41928921  0.24348932  0.57160806    -0.75000
O100        O  0.32403102  0.09969814  0.62561801    -0.74400
O101        O  0.42864615  0.17220197  0.57350345    -0.74800
O102        O  0.32328787  0.06717045  0.57221162    -0.74700
O103        O  0.24715328  0.06881579  0.57103632    -0.74500
C104        C  0.26434804  0.21787945  0.56824867     0.77300
C105        C  0.39983122  0.26831750  0.62197961     0.77700
C106        C  0.21525724  0.12383478  0.62093805     0.76700
C107        C  0.36280217  0.09125760  0.62342111     0.77100
C108        C  0.44159170  0.21664464  0.56722754     0.78200
C109        C  0.27811388  0.05213974  0.56573230     0.77300
Zn110      Zn  0.99519177  0.99299180  0.73456612     1.49700
Zn111      Zn  0.42950377  0.45559399  0.70330869     1.49400
Zn112      Zn  0.01516805  0.06286919  0.70400061     1.49100
Zn113      Zn  0.04256437  0.47298566  0.70388147     1.49500
O114        O  0.99354451  0.99224217  0.71093316    -1.84000
O115        O  0.42844149  0.47315113  0.74333081    -0.74600
O116        O  0.40866484  0.99737329  0.69006985    -0.74500
O117        O  0.04169367  0.11504561  0.72311903    -0.74000
O118        O  0.37736851  0.42588900  0.72238724    -0.74600
O119        O  0.03642450  0.06351388  0.74401999    -0.74200
O120        O  0.47617530  0.07771554  0.69094052    -0.74800
O121        O  0.09900781  0.02261547  0.68951261    -0.74200
O122        O  0.42688893  0.40089496  0.68781657    -0.75000
O123        O  0.07045344  0.08068021  0.68694809    -0.74400
O124        O  0.50939171  0.41433728  0.68694454    -0.74800
O125        O  0.06850400  0.44589605  0.72291601    -0.74700
O126        O  0.02454991  0.45699131  0.74402638    -0.74500
C127        C  0.38388255  0.44042491  0.73766143     0.77300
C128        C  0.43230762  0.04399476  0.68487913     0.77700
C129        C  0.04970196  0.10844257  0.73831842     0.76700
C130        C  0.09934146  0.06128496  0.68212582     0.77100
C131        C  0.46251733  0.39229953  0.68145556     0.78200
C132        C  0.05428328  0.43998354  0.73820877     0.77300
C133        C  0.33733672  0.17145126  0.15631139     0.45600
H134        H  0.33534726  0.16946759  0.14247444    -0.03400
C135        C  0.34172927  0.17545275  0.18873123     0.45600
H136        H  0.34430908  0.17689488  0.20260267    -0.03400
C137        C  0.28102042  0.14533777  0.16525632    -0.17100
C138        C  0.36635241  0.14217615  0.16405975    -0.16900
C139        C  0.36802427  0.22923481  0.16382288    -0.17300
C140        C  0.28588813  0.14911322  0.18237299    -0.17200
C141        C  0.36762360  0.14591216  0.18111744    -0.16800
C142        C  0.36801057  0.22853304  0.18092695    -0.17100
C143        C  0.49961475  0.99632778  0.14589532     0.45600
H144        H  0.49753446  0.99637604  0.15972610    -0.03400
C145        C  0.50453256  0.99683111  0.11346185     0.45600
H146        H  0.50646869  0.99712497  0.09956552    -0.03400
C147        C  0.47709490  0.44523554  0.13829604    -0.17100
C148        C  0.47322677  0.02705643  0.13731579    -0.16900
C149        C  0.06288875  0.03245194  0.13926673    -0.17300
C150        C  0.48108561  0.44811023  0.12124578    -0.17200
C151        C  0.47711961  0.02611509  0.12024418    -0.16800
C152        C  0.06267416  0.03103796  0.12212693    -0.17100
Zn153      Zn  0.20846645  0.29189707  0.92000469     1.49700
Zn154      Zn  0.20642294  0.40131205  0.92155236     1.49400
Zn155      Zn  0.09788038  0.29497143  0.91988806     1.49100
Zn156      Zn  0.16974258  0.32563877  0.94885679     1.49500
O157        O  0.17034862  0.32843248  0.92581178    -1.84000
O158        O  0.26709811  0.33917996  0.90493356    -0.74600
O159        O  0.16279129  0.41835918  0.90604414    -0.74500
O160        O  0.08589760  0.23458825  0.90511489    -0.73400
O161        O  0.27067674  0.41682021  0.90842882    -0.74600
O162        O  0.16033478  0.22902215  0.90611013    -0.74200
O163        O  0.08634589  0.34474158  0.90549462    -0.74800
O164        O  0.10919525  0.32833402  0.95834134    -0.74200
O165        O  0.22167606  0.44187511  0.94349399    -0.75000
O166        O  0.05067646  0.27178092  0.94085258    -0.74400
O167        O  0.23130538  0.38461288  0.95876502    -0.74800
O168        O  0.16747845  0.26119246  0.95624365    -0.74700
O169        O  0.23698713  0.27540323  0.94136590    -0.74500
C170        C  0.28706660  0.38757203  0.90159112     0.77300
C171        C  0.11615437  0.39119631  0.90052433     0.77700
C172        C  0.11381466  0.21346564  0.90054083     0.76700
C173        C  0.06285071  0.29302264  0.95534096     0.77100
C174        C  0.23350241  0.42874748  0.95732731     0.78200
C175        C  0.21158239  0.26217725  0.95512351     0.77300
Zn176      Zn  0.30166357  0.20745366  0.05210752     1.49700
Zn177      Zn  0.30609776  0.09995539  0.05099199     1.49400
Zn178      Zn  0.34244246  0.17484772  0.02308063     1.49100
Zn179      Zn  0.41431116  0.20826663  0.05129422     1.49500
O180        O  0.34092783  0.17211626  0.04611813    -1.84000
O181        O  0.24277854  0.16066376  0.06744946    -0.74600
O182        O  0.28576632  0.05708530  0.02935897    -0.74500
O183        O  0.34420380  0.23928067  0.01595033    -0.74000
O184        O  0.24425092  0.08505073  0.06586407    -0.74600
O185        O  0.27447869  0.22537051  0.03072339    -0.74200
O186        O  0.28122314  0.11564924  0.01310776    -0.74800
O187        O  0.45956874  0.23694685  0.03021336    -0.74200
O188        O  0.35525106  0.08629412  0.06481549    -0.75000
O189        O  0.40460672  0.17429536  0.01361968    -0.74400
O190        O  0.43129713  0.16035432  0.06468470    -0.74800
O191        O  0.42482094  0.26632482  0.06649992    -0.74700
O192        O  0.34934191  0.26975892  0.06598520    -0.74500
C193        C  0.22543320  0.11340896  0.07189182     0.77300
C194        C  0.27442514  0.06998851  0.01539645     0.77700
C195        C  0.30052664  0.23919877  0.01708000     0.76700
C196        C  0.44846222  0.21455084  0.01592047     0.77100
C197        C  0.40274843  0.11369594  0.06963929     0.78200
C198        C  0.39618589  0.28626760  0.07133365     0.77300
C199        C  0.21375180  0.26078450  0.98603960    -0.26200
C200        C  0.23474986  0.25481596  0.97067447    -0.14300
C201        C  0.27890604  0.24632352  0.97090359     0.36400
C202        C  0.29995986  0.24306879  0.98620252    -0.25600
C203        C  0.27852494  0.24834767  0.00157078    -0.14900
C204        C  0.23489456  0.25765781  0.00134225     0.37400
N205        N  0.21160223  0.26501535  0.01629884    -0.89100
H206        H  0.18076209  0.26880031  0.98627508     0.18600
H207        H  0.33307166  0.23523892  0.98595023     0.18600
N208        N  0.30285449  0.23993247  0.95594898    -0.88200
H209        H  0.24093857  0.29511195  0.02335359     0.35900
H210        H  0.19540885  0.23057541  0.02314612     0.41000
H211        H  0.31844248  0.27452652  0.94918481     0.40600
H212        H  0.27405985  0.20962633  0.94881697     0.35500
C213        C  0.28490684  0.00394001  0.99872224    -0.26200
C214        C  0.25994974  0.03469122  0.00084840    -0.14300
C215        C  0.22969065  0.03837662  0.98769134     0.36400
C216        C  0.22444390  0.49788673  0.97280530    -0.25600
C217        C  0.24346122  0.46174434  0.97239694    -0.14900
C218        C  0.26479066  0.45295693  0.98710609     0.37400
N219        N  0.28442470  0.41615321  0.98726606    -0.89100
H220        H  0.30977658  0.00226453  0.00850892     0.18600
H221        H  0.20615784  0.50377158  0.96185138     0.18600
N222        N  0.20300581  0.06882246  0.98964615    -0.88200
H223        H  0.26379244  0.38837136  0.99639406     0.35900
H224        H  0.32409066  0.43592327  0.99073132     0.41000
H225        H  0.16274142  0.04422783  0.98779358     0.40600
H226        H  0.21632941  0.09702559  0.98030862     0.35500
C227        C  0.47218514  0.20559924  0.98672516    -0.26200
C228        C  0.48277049  0.23697304  0.00116666    -0.14300
C229        C  0.01523944  0.28243959  0.99983088     0.36400
C230        C  0.04175997  0.30295599  0.98480999    -0.25600
C231        C  0.02621100  0.27415688  0.96972338    -0.14900
C232        C  0.49666215  0.22641371  0.97147538     0.37400
N233        N  0.48516671  0.19260337  0.95721467    -0.89100
H234        H  0.44391823  0.16445090  0.98714599     0.18600
H235        H  0.07591025  0.34135725  0.98513378     0.18600
N236        N  0.03292522  0.31311396  0.01483722    -0.88200
H237        H  0.44468462  0.17522974  0.95494371     0.35900
H238        H  0.49451015  0.16313552  0.96014871     0.41000
H239        H  0.03169441  0.34795433  0.01299643     0.40600
H240        H  0.07215853  0.32231004  0.01682734     0.35500
C241        C  0.41606923  0.39834981  0.09989489    -0.26200
C242        C  0.45857447  0.40376804  0.10953969    -0.14300
C243        C  0.48167456  0.37140479  0.10640863     0.36400
C244        C  0.46010043  0.33309483  0.09395666    -0.25600
C245        C  0.41749930  0.32777652  0.08415487    -0.14900
C246        C  0.39536644  0.36088575  0.08722581     0.37400
N247        N  0.35280041  0.35763642  0.07731318    -0.89100
H248        H  0.39950828  0.42426199  0.10200311     0.18600
H249        H  0.47737793  0.30768857  0.09184392     0.18600
N250        N  0.01559797  0.37034943  0.11653994    -0.88200
H251        H  0.36500455  0.39386027  0.07174507     0.35900
H252        H  0.32130857  0.35049927  0.08529626     0.41000
H253        H  0.02910657  0.40103090  0.12517803     0.40600
H254        H  0.04617722  0.37965733  0.10796718     0.35500
C255        C  0.49422009  0.09083721  0.09817605    -0.26200
C256        C  0.45760986  0.05092832  0.10826651    -0.14300
C257        C  0.40359564  0.03095810  0.10538799     0.36400
C258        C  0.38684523  0.05118234  0.09243029    -0.25600
C259        C  0.42329668  0.09156639  0.08229303    -0.14900
C260        C  0.47777219  0.11197597  0.08532370     0.37400
N261        N  0.51614551  0.15351508  0.07532797    -0.89100
H262        H  0.53583523  0.10497837  0.10017270     0.18600
H263        H  0.34489995  0.03550864  0.09048156     0.18600
N264        N  0.36569126  0.98948923  0.11538114    -0.88200
H265        H  0.51357358  0.13903084  0.06316627     0.35900
H266        H  0.55429212  0.16458083  0.07949907     0.41000
H267        H  0.34210552  0.95840567  0.10745024     0.40600
H268        H  0.34150621  0.00264442  0.12112844     0.35500
C269        C  0.18040871  0.12600690  0.09683041    -0.26200
C270        C  0.18442842  0.09187968  0.08502835    -0.14300
C271        C  0.15094213  0.03778965  0.08649527     0.36400
C272        C  0.11392356  0.01903474  0.09941554    -0.25600
C273        C  0.10922319  0.05302507  0.11096794    -0.14900
C274        C  0.14280285  0.10716108  0.10972917     0.37400
N275        N  0.13802413  0.14279269  0.12128261    -0.89100
H276        H  0.20658732  0.16757305  0.09597007     0.18600
H277        H  0.08724785  0.97757725  0.10007528     0.18600
N278        N  0.15300447  0.00175815  0.07457935    -0.88200
H279        H  0.10093130  0.14008184  0.11973121     0.35900
H280        H  0.16579955  0.18127608  0.11864555     0.41000
H281        H  0.11591706  0.98116664  0.06901934     0.40600
H282        H  0.16062158  0.97511507  0.08102646     0.35500
C283        C  0.37281956  0.05892655  0.15970205    -0.26200
C284        C  0.39012109  0.11150747  0.15529274    -0.14300
C285        C  0.43669101  0.13659490  0.14572212     0.36400
C286        C  0.46485487  0.10947038  0.14112561    -0.25600
C287        C  0.44751207  0.05685128  0.14551313    -0.14900
C288        C  0.40049349  0.03172556  0.15493178     0.37400
N289        N  0.37915792  0.97814829  0.15952723    -0.89100
H290        H  0.33774884  0.03898447  0.16731387     0.18600
H291        H  0.99683664  0.13412313  0.13313817     0.18600
N292        N  0.45663200  0.19035515  0.14132806    -0.88200
H293        H  0.40590737  0.47336244  0.16662787     0.35900
H294        H  0.37313621  0.45503994  0.14824183     0.41000
H295        H  0.42939442  0.19249267  0.13328569     0.40600
H296        H  0.98256736  0.20500295  0.13306780     0.35500
C297        C  0.44965825  0.31688691  0.15982082    -0.26200
C298        C  0.39712979  0.28187941  0.15504835    -0.14300
C299        C  0.37045979  0.30248375  0.14554346     0.36400
C300        C  0.39582506  0.35650516  0.14148943    -0.25600
C301        C  0.44812849  0.39159852  0.14645918    -0.14900
C302        C  0.47471542  0.37066359  0.15590133     0.37400
N303        N  0.52723734  0.40312187  0.16180564    -0.89100
H304        H  0.47092580  0.30253341  0.16736572     0.18600
H305        H  0.37479449  0.37133725  0.13405178     0.18600
N306        N  0.31688167  0.26904256  0.14061337    -0.88200
H307        H  0.02487355  0.40099048  0.17452893     0.35900
H308        H  0.03828628  0.43812935  0.15758239     0.41000
H309        H  0.31688294  0.24113408  0.13229568     0.40600
H310        H  0.30222240  0.29009065  0.13403092     0.35500
C311        C  0.18990676  0.13563934  0.16100808    -0.26200
C312        C  0.22619180  0.11715086  0.15737970    -0.14300
C313        C  0.20554193  0.06706181  0.14965456     0.36400
C314        C  0.15146030  0.03894850  0.14535620    -0.25600
C315        C  0.11554425  0.05811141  0.14850613    -0.14900
C316        C  0.13561547  0.10721671  0.15683965     0.37400
N317        N  0.10302532  0.13092499  0.16060058    -0.89100
H318        H  0.20395043  0.17277269  0.16746187     0.18600
H319        H  0.13740715  0.00171972  0.13895940     0.18600
N320        N  0.23732564  0.04211050  0.14653319    -0.88200
H321        H  0.10232583  0.13483107  0.17359426     0.35900
H322        H  0.06421325  0.10712935  0.15693434     0.41000
H323        H  0.27592217  0.06523824  0.15043532     0.40600
H324        H  0.23873540  0.03737034  0.13360034     0.35500
C325        C  0.44996044  0.08263541  0.65693408    -0.26200
C326        C  0.41300352  0.05692493  0.66963059    -0.14300
C327        C  0.35907347  0.03850827  0.66642454     0.36400
C328        C  0.34347785  0.04708366  0.65081063    -0.25600
C329        C  0.38042559  0.07323825  0.63807841    -0.14900
C330        C  0.43433881  0.09054184  0.64114282     0.37400
N331        N  0.47326437  0.11787970  0.62853836    -0.89100
H332        H  0.49132853  0.09550825  0.65921179     0.18600
H333        H  0.30202456  0.03430583  0.64876245     0.18600
N334        N  0.31954616  0.01296314  0.67893748    -0.88200
H335        H  0.46783031  0.09120305  0.61892677     0.35900
H336        H  0.51120168  0.13029558  0.63317149     0.41000
H337        H  0.32952281  0.03708746  0.68952431     0.40600
H338        H  0.31876543  0.97795261  0.68209479     0.35500
C339        C  0.45663962  0.29962592  0.64692637    -0.26200
C340        C  0.42526324  0.30764679  0.63518341    -0.14300
C341        C  0.40867938  0.34509852  0.63844943     0.36400
C342        C  0.42096154  0.37129874  0.65386028    -0.25600
C343        C  0.45039079  0.36171163  0.66588897    -0.14900
C344        C  0.46996455  0.32676524  0.66213362     0.37400
N345        N  0.99410828  0.31799032  0.67439275    -0.89100
H346        H  0.46903995  0.27042647  0.64453267     0.18600
H347        H  0.40747535  0.39955391  0.65650337     0.18600
N348        N  0.37656535  0.35389523  0.62662689    -0.88200
H349        H  0.97223720  0.30523497  0.68542243     0.35900
H350        H  0.02932930  0.35178296  0.67694506     0.41000
H351        H  0.39992251  0.37123224  0.61614078     0.40600
H352        H  0.36539114  0.38072597  0.63139408     0.35500
C353        C  0.13575689  0.04245518  0.65665916    -0.26200
C354        C  0.12851228  0.07925010  0.66625249    -0.14300
C355        C  0.14354081  0.12905149  0.65941504     0.36400
C356        C  0.16882010  0.14180311  0.64391896    -0.25600
C357        C  0.17729220  0.10533107  0.63467729    -0.14900
C358        C  0.15973071  0.05485180  0.64092475     0.37400
N359        N  0.16846195  0.01711647  0.63163171    -0.89100
H360        H  0.12245293  0.00352491  0.66140979     0.18600
H361        H  0.18308396  0.18093714  0.63919527     0.18600
N362        N  0.13499481  0.16788716  0.66793727    -0.88200
H363        H  0.13150121  0.49406864  0.62818508     0.35900
H364        H  0.20907522  0.03046958  0.63118995     0.41000
H365        H  0.15141411  0.17392755  0.67987393     0.40600
H366        H  0.09451756  0.15475622  0.66889874     0.35500
C367        C  0.22364998  0.51746759  0.54214243    -0.26200
C368        C  0.26176172  0.01727097  0.55091298    -0.14300
C369        C  0.29780762  0.50022352  0.54432121     0.36400
C370        C  0.27649355  0.46439995  0.53112836    -0.25600
C371        C  0.22648089  0.45058698  0.52497157    -0.14900
C372        C  0.20316278  0.48186292  0.52893830     0.37400
N373        N  0.16056329  0.47938646  0.51926117    -0.89100
H374        H  0.19679039  0.03248922  0.54550070     0.18600
H375        H  0.29802754  0.44566992  0.52597383     0.18600
N376        N  0.34177135  0.00588918  0.55143280    -0.88200
H377        H  0.17479632  0.51485375  0.51302788     0.35900
H378        H  0.13171700  0.47826900  0.52743672     0.41000
H379        H  0.36800503  0.04472739  0.54867395     0.40600
H380        H  0.35703824  0.98377049  0.54554835     0.35500
C381        C  0.03918900  0.24321465  0.53099852    -0.26200
C382        C  0.07014881  0.29766316  0.53076425    -0.14300
C383        C  0.06143491  0.32773990  0.54318515     0.36400
C384        C  0.51577211  0.29207274  0.55437087    -0.25600
C385        C  0.48278310  0.23820187  0.55429316    -0.14900
C386        C  0.00005469  0.21871412  0.54313985     0.37400
N387        N  0.96828763  0.16320727  0.54214224    -0.89100
H388        H  0.04588881  0.21944280  0.52179525     0.18600
H389        H  0.51212787  0.31619203  0.56416470     0.18600
N390        N  0.08912512  0.38330879  0.54345891    -0.88200
H391        H  0.92875518  0.15427490  0.54125641     0.35900
H392        H  0.45634217  0.13408935  0.54991533     0.41000
H393        H  0.08355933  0.39566505  0.53181298     0.40600
H394        H  0.12877881  0.39618266  0.54551173     0.35500
C395        C  0.26194932  0.29425527  0.55668035    -0.26200
C396        C  0.24309982  0.24054649  0.55606433    -0.14300
C397        C  0.20866063  0.21109185  0.54301545     0.36400
C398        C  0.19445271  0.23642523  0.53078817    -0.25600
C399        C  0.21445829  0.29080212  0.53128092    -0.14900
C400        C  0.24797395  0.31930192  0.54460450     0.37400
N401        N  0.26931123  0.37429718  0.54593674    -0.89100
H402        H  0.28841509  0.31749450  0.56659868     0.18600
H403        H  0.16726950  0.21342737  0.52101397     0.18600
N404        N  0.18916946  0.15589409  0.54185665    -0.88200
H405        H  0.31037012  0.39080321  0.54597166     0.35900
H406        H  0.25766937  0.38305647  0.55741295     0.41000
H407        H  0.20082822  0.14754127  0.53032390     0.40600
H408        H  0.14802390  0.13779407  0.54206123     0.35500
C409        C  0.21765719  0.02249963  0.47995062    -0.26200
C410        C  0.27222797  0.05451185  0.48264754    -0.14300
C411        C  0.30084813  0.02976213  0.48819753     0.36400
C412        C  0.28175844  0.47780241  0.49077444    -0.25600
C413        C  0.22651637  0.44730651  0.48872665    -0.14900
C414        C  0.19956136  0.47352228  0.48260191     0.37400
N415        N  0.14451925  0.44580740  0.47855829    -0.89100
H416        H  0.19484446  0.04005839  0.47519161     0.18600
H417        H  0.30369696  0.45947639  0.49566876     0.18600
N418        N  0.35608414  0.06018584  0.49134668    -0.88200
H419        H  0.12441168  0.45798260  0.48685849     0.35900
H420        H  0.12945145  0.40564693  0.47991217     0.41000
H421        H  0.37577589  0.04481706  0.48410523     0.40600
H422        H  0.36261059  0.05565702  0.50390212     0.35500
C423        C  0.03847293  0.23680251  0.48573441    -0.26200
C424        C  0.05571274  0.28617458  0.49325891    -0.14300
C425        C  0.01712234  0.30330949  0.49543412     0.36400
C426        C  0.45609357  0.26598323  0.49003548    -0.25600
C427        C  0.43880208  0.21843051  0.48140779    -0.14900
C428        C  0.47707788  0.20212581  0.47791178     0.37400
N429        N  0.46181517  0.15391976  0.46920078    -0.89100
H430        H  0.06613920  0.22187269  0.48421247     0.18600
H431        H  0.42842211  0.28059524  0.49227508     0.18600
N432        N  0.03071806  0.35449680  0.50169456    -0.88200
H433        H  0.47036579  0.13006857  0.47681348     0.35900
H434        H  0.48490770  0.16183347  0.45842019     0.41000
H435        H  0.07108093  0.37659584  0.50379921     0.40600
H436        H  0.01135287  0.35021175  0.51309863     0.35500
C437        C  0.29922021  0.26607557  0.49085793    -0.26200
C438        C  0.26923524  0.21823391  0.48251997    -0.14300
C439        C  0.21470866  0.20214195  0.47996433     0.36400
C440        C  0.19265091  0.23406534  0.48541271    -0.25600
C441        C  0.22276108  0.28217224  0.49359011    -0.14900
C442        C  0.27725924  0.29815959  0.49620990     0.37400
N443        N  0.31232486  0.34773677  0.50368896    -0.89100
H444        H  0.34106714  0.28021294  0.49244565     0.18600
H445        H  0.15088829  0.22010199  0.48371373     0.18600
N446        N  0.17997037  0.15297984  0.47218284    -0.88200
H447        H  0.32441495  0.34063364  0.51520361     0.35900
H448        H  0.29383088  0.37040280  0.50594666     0.41000
H449        H  0.19878958  0.13069116  0.46973171     0.40600
H450        H  0.16812509  0.16075067  0.46072875     0.35500
C451        C  0.39546528  0.48276395  0.87366728    -0.26200
C452        C  0.39644599  0.44941279  0.86106299    -0.14300
C453        C  0.36133221  0.39517515  0.86195272     0.36400
C454        C  0.32649923  0.37623744  0.87540765    -0.25600
C455        C  0.32706935  0.40945210  0.88833839    -0.14900
C456        C  0.36228356  0.46334060  0.88752192     0.37400
N457        N  0.36534830  0.49792949  0.90093749    -0.89100
H458        H  0.42535341  0.03235495  0.87154915     0.18600
H459        H  0.29931811  0.33479545  0.87587475     0.18600
N460        N  0.36251628  0.35754256  0.85045462    -0.88200
H461        H  0.38657048  0.04841536  0.89411106     0.35900
H462        H  0.37883802  0.48718742  0.91150894     0.41000
H463        H  0.39495609  0.37389934  0.84250417     0.40600
H464        H  0.32825901  0.34248427  0.84325664     0.35500
C465        C  0.04194836  0.39602551  0.88723605    -0.26200
C466        C  0.09601597  0.41304913  0.88768416    -0.14300
C467        C  0.12880233  0.44772957  0.87529471     0.36400
C468        C  0.10670015  0.46502016  0.86285656    -0.25600
C469        C  0.05240303  0.44812388  0.86260133    -0.14900
C470        C  0.02011967  0.41337557  0.87497741     0.37400
N471        N  0.45713222  0.38467772  0.87100997    -0.89100
H472        H  0.01621642  0.36927215  0.89658829     0.18600
H473        H  0.13047967  0.00037440  0.85306815     0.18600
N474        N  0.18420571  0.46469753  0.87509385    -0.88200
H475        H  0.44313186  0.39179036  0.88230070     0.35900
H476        H  0.44172985  0.34433498  0.86963092     0.41000
H477        H  0.20408942  0.50542561  0.87585965     0.40600
H478        H  0.19794519  0.97165369  0.86487726     0.35500
C479        C  0.09072747  0.09877980  0.87250834    -0.26200
C480        C  0.05473518  0.09951490  0.86097620    -0.14300
C481        C  0.03726535  0.13669374  0.86273480     0.36400
C482        C  0.05653251  0.17302439  0.87588666    -0.25600
C483        C  0.09266918  0.17244357  0.88748385    -0.14900
C484        C  0.10980061  0.13478798  0.88572632     0.37400
N485        N  0.14522324  0.13188626  0.89757005    -0.89100
H486        H  0.10326891  0.06926311  0.87143299     0.18600
H487        H  0.04322756  0.20196850  0.87695915     0.18600
N488        N  0.49201750  0.13155970  0.85408663    -0.88200
H489        H  0.17849295  0.13584887  0.89110140     0.35900
H490        H  0.12671170  0.09479291  0.90287963     0.41000
H491        H  0.50367418  0.16714862  0.84815524     0.40600
H492        H  0.46032642  0.12471908  0.86193188     0.35500
C493        C  0.26929460  0.34361195  0.76297838    -0.26200
C494        C  0.26726079  0.37588631  0.77580434    -0.14300
C495        C  0.30195183  0.42983714  0.77547820     0.36400
C496        C  0.33871471  0.45034440  0.76255329    -0.25600
C497        C  0.34046068  0.41809561  0.74967433    -0.14900
C498        C  0.30543158  0.36431172  0.74987507     0.37400
N499        N  0.30743026  0.33047536  0.73709855    -0.89100
H500        H  0.24186940  0.30219339  0.76297116     0.18600
H501        H  0.36578871  0.49186042  0.76249680     0.18600
N502        N  0.29842759  0.46418370  0.78775155    -0.88200
H503        H  0.27039640  0.31117953  0.73143999     0.35900
H504        H  0.31472240  0.30248521  0.74279454     0.41000
H505        H  0.29099670  0.49143938  0.78163297     0.40600
H506        H  0.33514488  0.48455953  0.79354510     0.35500
C507        C  0.06656060  0.36941286  0.77578554    -0.26200
C508        C  0.11972287  0.38223179  0.77473216    -0.14300
C509        C  0.15012350  0.41165676  0.76102944     0.36400
C510        C  0.12707198  0.42744023  0.74870337    -0.25600
C511        C  0.07445097  0.41575586  0.74997689    -0.14900
C512        C  0.04382449  0.38649107  0.76363603     0.37400
N513        N  0.98944567  0.37340939  0.76507195    -0.89100
H514        H  0.04230280  0.34523728  0.78585287     0.18600
H515        H  0.15117238  0.45095529  0.73847803     0.18600
N516        N  0.20498724  0.42703585  0.75977261    -0.88200
H517        H  0.98427549  0.38833749  0.77646085     0.35900
H518        H  0.96706347  0.33277871  0.76539340     0.41000
H519        H  0.22579231  0.46773625  0.75923419     0.40600
H520        H  0.21133418  0.41224708  0.74852668     0.35500
C521        C  0.10902990  0.15248534  0.76208305    -0.26200
C522        C  0.07423412  0.15290398  0.74997176    -0.14300
C523        C  0.06017320  0.19299240  0.75018622     0.36400
C524        C  0.08006827  0.23096375  0.76285829    -0.25600
C525        C  0.11454699  0.23032254  0.77500022    -0.14900
C526        C  0.13048807  0.19168981  0.77435754     0.37400
N527        N  0.16894371  0.19297170  0.78590804    -0.89100
H528        H  0.12005694  0.12178116  0.76179774     0.18600
H529        H  0.06899778  0.26164258  0.76323123     0.18600
N530        N  0.02435549  0.19397472  0.73799525    -0.88200
H531        H  0.20431137  0.22686168  0.78367834     0.35900
H532        H  0.17620176  0.16152059  0.78374693     0.41000
H533        H  0.53570775  0.20015040  0.73117381     0.40600
H534        H  0.50720026  0.21625142  0.74678431     0.35500
C535        C  0.10568152  0.47069929  0.81670866    -0.26200
C536        C  0.05681175  0.44288091  0.82477555    -0.14300
C537        C  0.03754694  0.38854914  0.82690402     0.36400
C538        C  0.06634705  0.36346841  0.82092915    -0.25600
C539        C  0.11501818  0.39107028  0.81270556    -0.14900
C540        C  0.13470942  0.44593776  0.81076172     0.37400
N541        N  0.18500650  0.47831196  0.80328654    -0.89100
H542        H  0.12076842  0.01205405  0.81380330     0.18600
H543        H  0.04967761  0.32166862  0.82233442     0.18600
N544        N  0.98824976  0.35837426  0.83519005    -0.88200
H545        H  0.18501419  0.46683204  0.79092999     0.35900
H546        H  0.21376488  0.47384600  0.80973827     0.41000
H547        H  0.45871535  0.32778252  0.82263319     0.40600
H548        H  0.99484821  0.34035030  0.84542796     0.35500
C549        C  0.34614464  0.45691164  0.82892345    -0.26200
C550        C  0.38644649  0.44609385  0.82330065    -0.14300
C551        C  0.37137393  0.40244332  0.81258105     0.36400
C552        C  0.31747630  0.37099208  0.80814237    -0.25600
C553        C  0.27691933  0.38206268  0.81364467    -0.14900
C554        C  0.29238942  0.42541604  0.82476674     0.37400
N555        N  0.25559578  0.43997594  0.83200149    -0.89100
H556        H  0.36437864  0.99669320  0.83702460     0.18600
H557        H  0.30708113  0.33788420  0.79985626     0.18600
N558        N  0.41029784  0.38845265  0.80688023    -0.88200
H559        H  0.26521119  0.94789202  0.84519129     0.35900
H560        H  0.21746503  0.41494756  0.82848713     0.41000
H561        H  0.43592871  0.41783395  0.79891110     0.40600
H562        H  0.39279530  0.35418305  0.79970660     0.35500
C563        C  0.13542138  0.20110319  0.82211636    -0.26200
C564        C  0.10681284  0.21926803  0.81262503    -0.14300
C565        C  0.05382332  0.18249463  0.80856436     0.36400
C566        C  0.03153055  0.12954751  0.81375885    -0.25600
C567        C  0.06015457  0.11140393  0.82326558    -0.14900
C568        C  0.11326015  0.14810026  0.82720970     0.37400
N569        N  0.14488935  0.13122785  0.83639200    -0.89100
H570        H  0.17629248  0.22787492  0.82488654     0.18600
H571        H  0.99070293  0.10274432  0.81094693     0.18600
N572        N  0.02258040  0.19917034  0.79908026    -0.88200
H573        H  0.18264386  0.16225363  0.83840971     0.35900
H574        H  0.14926335  0.10370620  0.82901500     0.41000
H575        H  0.01792236  0.22685413  0.80627496     0.40600
H576        H  0.98491207  0.16808585  0.79697457     0.35500
C577        C  0.38429488  0.34398799  0.20704232    -0.26200
C578        C  0.42192680  0.34664738  0.21849400    -0.14300
C579        C  0.44500520  0.31404229  0.21663803     0.36400
C580        C  0.42876340  0.27799845  0.20343971    -0.25600
C581        C  0.38984582  0.27400362  0.19224692    -0.14900
C582        C  0.36693874  0.30720763  0.19410459     0.37400
N583        N  0.32363051  0.30234437  0.18411035    -0.89100
H584        H  0.36725271  0.36987192  0.20846053     0.18600
H585        H  0.44556639  0.25191497  0.20206249     0.18600
N586        N  0.48523030  0.31825389  0.22799011    -0.88200
H587        H  0.33715413  0.33578680  0.17682562     0.35900
H588        H  0.30947453  0.27018491  0.17605850     0.41000
H589        H  0.51785251  0.35505073  0.22641877     0.40600
H590        H  0.49774388  0.29094644  0.22490971     0.35500
C591        C  0.46022762  0.12063575  0.20772680    -0.26200
C592        C  0.42400314  0.08377363  0.21877069    -0.14300
C593        C  0.36940768  0.06455287  0.21642698     0.36400
C594        C  0.35276367  0.08419062  0.20337168    -0.25600
C595        C  0.38893089  0.12187224  0.19257727    -0.14900
C596        C  0.44347859  0.14083570  0.19481136     0.37400
N597        N  0.48282747  0.18189005  0.18491121    -0.89100
H598        H  0.50207321  0.13449972  0.20935492     0.18600
H599        H  0.31092103  0.07031438  0.20173879     0.18600
N600        N  0.32627139  0.51491602  0.22574619    -0.88200
H601        H  0.46636309  0.19728735  0.17659920     0.35900
H602        H  0.50222825  0.16584669  0.17782455     0.41000
H603        H  0.34358290  0.50558907  0.23558860     0.40600
H604        H  0.31024331  0.48243275  0.21773835     0.35500
C605        C  0.20603060  0.13239725  0.22165409    -0.26200
C606        C  0.16896263  0.07979344  0.22051316    -0.14300
C607        C  0.16921262  0.04953237  0.20665428     0.36400
C608        C  0.20700151  0.07301055  0.19407903    -0.25600
C609        C  0.24284122  0.12639100  0.19483170    -0.14900
C610        C  0.24232692  0.15613214  0.20883424     0.37400
N611        N  0.27806020  0.21078977  0.21000338    -0.89100
H612        H  0.20506707  0.15589217  0.23212005     0.18600
H613        H  0.20908029  0.04941103  0.18386515     0.18600
N614        N  0.11529999  0.48578508  0.20253703    -0.88200
H615        H  0.25604956  0.23059124  0.21107403     0.35900
H616        H  0.30011773  0.21773650  0.22093877     0.41000
H617        H  0.12094526  0.46558472  0.21232509     0.40600
H618        H  0.12090332  0.46978946  0.19143210     0.35500
C619        C  0.10619501  0.47416359  0.31482480    -0.26200
C620        C  0.06956258  0.43438947  0.30441804    -0.14300
C621        C  0.04279952  0.38299180  0.31047654     0.36400
C622        C  0.05345036  0.37230899  0.32655688    -0.25600
C623        C  0.09093525  0.41183745  0.33682621    -0.14900
C624        C  0.11688607  0.46343696  0.33091952     0.37400
N625        N  0.15394829  0.50517681  0.34121059    -0.89100
H626        H  0.12575864  0.51426278  0.31067059     0.18600
H627        H  0.03376152  0.33217874  0.33067647     0.18600
N628        N  0.49290056  0.33999925  0.30122468    -0.88200
H629        H  0.14085491  0.53281935  0.34263808     0.35900
H630        H  0.19008199  0.52284620  0.33493348     0.41000
H631        H  0.45929249  0.33080126  0.30842621     0.40600
H632        H  0.49727118  0.30650747  0.30010999     0.35500
C633        C  0.12912413  0.18193211  0.30660511    -0.26200
C634        C  0.07583504  0.15566664  0.30199133    -0.14300
C635        C  0.03757166  0.15459254  0.31344702     0.36400
C636        C  0.05327848  0.17811977  0.32911810    -0.25600
C637        C  0.10638562  0.20334642  0.33389017    -0.14900
C638        C  0.14485871  0.20593547  0.32225647     0.37400
N639        N  0.20022620  0.23377063  0.32565426    -0.89100
H640        H  0.15897134  0.18320750  0.29804671     0.18600
H641        H  0.02335088  0.17675300  0.33766040     0.18600
N642        N  0.46968791  0.09687955  0.31442506    -0.88200
H643        H  0.20836074  0.21692811  0.33589834     0.35900
H644        H  0.21092131  0.27270596  0.32837295     0.41000
H645        H  0.46336071  0.05929640  0.31149175     0.40600
H646        H  0.45576937  0.11068153  0.30473931     0.35500
C647        C  0.30259954  0.44239157  0.32392029    -0.26200
C648        C  0.31099934  0.40986509  0.33495151    -0.14300
C649        C  0.34435611  0.38912890  0.32990653     0.36400
C650        C  0.36800865  0.40121505  0.31416013    -0.25600
C651        C  0.35942290  0.43362966  0.30314572    -0.14900
C652        C  0.32643709  0.45466532  0.30823801     0.37400
N653        N  0.31524869  0.48753858  0.29770891    -0.89100
H654        H  0.27620364  0.45775807  0.32731257     0.18600
H655        H  0.39455795  0.38607827  0.31070388     0.18600
N656        N  0.35615817  0.35687435  0.34052313    -0.88200
H657        H  0.30173405  0.46873931  0.28619020     0.35900
H658        H  0.34966083  0.52273253  0.29593361     0.41000
H659        H  0.32198106  0.32159820  0.34243488     0.40600
H660        H  0.36987768  0.37614383  0.35197196     0.35500
C661        C  0.22732666  0.04242407  0.44050876    -0.26200
C662        C  0.27873298  0.06078232  0.44628570    -0.14300
C663        C  0.31016030  0.03959387  0.43977290     0.36400
C664        C  0.29136992  0.00532060  0.42614626    -0.25600
C665        C  0.24813849  0.49833287  0.41852774    -0.14900
C666        C  0.21589362  0.51413435  0.42737951     0.37400
N667        N  0.16252981  0.49770316  0.42255275    -0.89100
H668        H  0.20196761  0.05601704  0.44625025     0.18600
H669        H  0.31467794  0.98808715  0.42120023     0.18600
N670        N  0.35918918  0.04933806  0.44723007    -0.88200
H671        H  0.14127930  0.45704394  0.42315458     0.35900
H672        H  0.16257485  0.50876671  0.41018014     0.41000
H673        H  0.37042103  0.07769607  0.45660244     0.40600
H674        H  0.38858947  0.06349384  0.43809026     0.35500
C675        C  0.00691505  0.29222343  0.43064806    -0.26200
C676        C  0.00889341  0.25867909  0.41827297    -0.14300
C677        C  0.46083957  0.20126090  0.41736387     0.36400
C678        C  0.42535335  0.18111682  0.43062801    -0.25600
C679        C  0.42414442  0.21324067  0.44362607    -0.14900
C680        C  0.45748927  0.26746717  0.44290702     0.37400
N681        N  0.45274684  0.30180393  0.45499948    -0.89100
H682        H  0.03319802  0.33381889  0.42983996     0.18600
H683        H  0.39742710  0.14018139  0.43060101     0.18600
N684        N  0.46297373  0.16716539  0.40460636    -0.88200
H685        H  0.99292479  0.34662645  0.45286847     0.35900
H686        H  0.41547145  0.29888892  0.45360843     0.41000
H687        H  0.45101912  0.17629826  0.39340344     0.40600
H688        H  0.43593836  0.12834220  0.40712395     0.35500
C689        C  0.29240778  0.26773946  0.44632034    -0.26200
C690        C  0.27691419  0.21442253  0.44451071    -0.14300
C691        C  0.24870090  0.18773011  0.43002969     0.36400
C692        C  0.23785511  0.21417095  0.41765508    -0.25600
C693        C  0.25238695  0.26660843  0.41961740    -0.14900
C694        C  0.27913125  0.29371760  0.43416608     0.37400
N695        N  0.29352400  0.34764704  0.43647338    -0.89100
H696        H  0.31581891  0.28964294  0.45693028     0.18600
H697        H  0.21559147  0.19273664  0.40675918     0.18600
N698        N  0.22979012  0.13321366  0.42779678    -0.88200
H699        H  0.33440497  0.36861747  0.43787899     0.35900
H700        H  0.27629390  0.35135124  0.44759127     0.41000
H701        H  0.24552995  0.12734751  0.41666432     0.40600
H702        H  0.18884032  0.11522363  0.42650389     0.35500
Zn703      Zn  0.20041415  0.90718734  0.37227640     1.49700
Zn704      Zn  0.20605355  0.80091912  0.37230540     1.49400
Zn705      Zn  0.16480217  0.83569446  0.40361617     1.49100
Zn706      Zn  0.09407733  0.79818606  0.37197299     1.49500
O707        O  0.16615652  0.83535157  0.37980835    -1.84000
O708        O  0.25649793  0.91859173  0.35570055    -0.74600
O709        O  0.23690963  0.78078027  0.39160871    -0.74500
O710        O  0.19512073  0.90501920  0.41273245    -0.74000
O711        O  0.26185458  0.84547750  0.35627943    -0.74600
O712        O  0.22879259  0.95915245  0.39137251    -0.74200
O713        O  0.20755184  0.80764095  0.41334582    -0.74800
O714        O  0.04047088  0.77112988  0.39091997    -0.74200
O715        O  0.16289207  0.74100518  0.35705313    -0.75000
O716        O  0.09378275  0.79854437  0.41289525    -0.74400
O717        O  0.08621061  0.74099629  0.35670839    -0.74800
O718        O  0.08098124  0.84265398  0.35581975    -0.74700
O719        O  0.15232842  0.92008903  0.35778684    -0.74500
C720        C  0.27450768  0.88948550  0.34990562     0.77300
C721        C  0.23407392  0.78726837  0.40729080     0.77700
C722        C  0.22099820  0.95029407  0.40694186     0.76700
C723        C  0.04807468  0.77512341  0.40666778     0.77100
C724        C  0.11742279  0.72544037  0.35085734     0.78200
C725        C  0.10873758  0.88933629  0.35090375     0.77300
Zn726      Zn  0.07177079  0.53779880  0.26603737     1.49700
Zn727      Zn  0.46386468  0.54027504  0.26642556     1.49400
Zn728      Zn  0.00857510  0.00984384  0.23507295     1.49100
Zn729      Zn  0.46232206  0.92643747  0.26561917     1.49500
O730        O  0.00861334  0.00935584  0.25883483    -1.84000
O731        O  0.08832129  0.59971307  0.28068307    -0.74600
O732        O  0.43408631  0.56432964  0.24755025    -0.74500
O733        O  0.06425980  0.52568887  0.22498940    -0.74000
O734        O  0.01090052  0.59772592  0.28292121    -0.74600
O735        O  0.12097400  0.55766010  0.24602763    -0.74200
O736        O  0.46893307  0.54384028  0.22572706    -0.74800
O737        O  0.43618971  0.87454034  0.24648424    -0.74200
O738        O  0.39817999  0.98824940  0.28043918    -0.75000
O739        O  0.45564239  0.92821180  0.22503156    -0.74400
O740        O  0.40434274  0.91546501  0.28130321    -0.74800
O741        O  0.02041627  0.92231544  0.28088921    -0.74700
O742        O  0.09245797  0.99899829  0.28286160    -0.74500
C743        C  0.05831843  0.61523028  0.28754733     0.77300
C744        C  0.44170343  0.56339083  0.23187411     0.77700
C745        C  0.11094094  0.54883683  0.23046687     0.76700
C746        C  0.43548408  0.88279789  0.23093080     0.77100
C747        C  0.38501510  0.94392411  0.28670396     0.78200
C748        C  0.06436344  0.95229051  0.28768091     0.77300
C749        C  0.16900926  0.83211958  0.81418149     0.45600
H750        H  0.16733033  0.83346018  0.82801528    -0.03400
C751        C  0.17126661  0.82777856  0.78181682     0.45600
H752        H  0.17210588  0.82515103  0.76795530    -0.03400
C753        C  0.14286838  0.86254749  0.80503331    -0.17100
C754        C  0.22733220  0.85725334  0.80670408    -0.16900
C755        C  0.13894305  0.77418439  0.80675359    -0.17300
C756        C  0.14487774  0.85877122  0.78790080    -0.17200
C757        C  0.22555699  0.85340360  0.78956592    -0.16800
C758        C  0.14133568  0.77476683  0.78966324    -0.17100
C759        C  0.49758589  0.50034753  0.82444259     0.45600
H760        H  0.49862302  0.50140680  0.81059913    -0.03400
C761        C  0.49608570  0.49813913  0.85689199     0.45600
H762        H  0.00340591  0.50162316  0.87246637    -0.03400
C763        C  0.03352614  0.55936727  0.83446240    -0.17100
C764        C  0.44654286  0.97647769  0.83287120    -0.16900
C765        C  0.02937198  0.97065868  0.83169283    -0.17300
C766        C  0.03194424  0.55624463  0.85157125    -0.17200
C767        C  0.44872204  0.97799711  0.85000926    -0.16800
C768        C  0.02768498  0.97177213  0.84881349    -0.17100
C769        C  0.16871889  0.84307665  0.52390920     0.45600
H770        H  0.16991673  0.84673079  0.53769345    -0.03400
C771        C  0.16467281  0.83305716  0.49155785     0.45600
H772        H  0.16326847  0.82903903  0.47774628    -0.03400
C773        C  0.19620844  0.81273347  0.51755050    -0.17100
C774        C  0.11274091  0.81363078  0.51737453    -0.16900
C775        C  0.19405843  0.89527178  0.51494622    -0.17300
C776        C  0.19606502  0.80745227  0.50037883    -0.17200
C777        C  0.10805080  0.80729162  0.50029085    -0.16800
C778        C  0.19329252  0.89202122  0.49793749    -0.17100
C779        C  0.33811952  0.66548541  0.44867357     0.45600
H780        H  0.33841460  0.66364543  0.43482167    -0.03400
C781        C  0.33803549  0.66922987  0.48112969     0.45600
H782        H  0.33794245  0.67072087  0.49498350    -0.03400
C783        C  0.31262670  0.61208679  0.45664329    -0.17100
C784        C  0.39309468  0.69461135  0.45581546    -0.16900
C785        C  0.30898994  0.69353138  0.45545117    -0.17300
C786        C  0.31054662  0.61160804  0.47365585    -0.17200
C787        C  0.39550057  0.69660060  0.47298445    -0.16800
C788        C  0.30748846  0.69624559  0.47265591    -0.17100
Zn789      Zn  0.26184308  0.62945955  0.58699686     1.49700
Zn790      Zn  0.36830276  0.73893883  0.58607804     1.49400
Zn791      Zn  0.33395156  0.66940225  0.61528047     1.49100
Zn792      Zn  0.37551797  0.63344183  0.58682206     1.49500
O793        O  0.33524705  0.66800341  0.59226856    -1.84000
O794        O  0.24245950  0.67255361  0.57219773    -0.74600
O795        O  0.39256817  0.78654811  0.60684213    -0.74500
O796        O  0.27160399  0.67191155  0.62399772    -0.74000
O797        O  0.31693371  0.74830505  0.57182570    -0.74600
O798        O  0.21668215  0.60561740  0.60829427    -0.74200
O799        O  0.39619904  0.72973766  0.62419887    -0.74800
O800        O  0.39516026  0.60813210  0.60802351    -0.74200
O801        O  0.42931607  0.75171669  0.57123055    -0.75000
O802        O  0.33215577  0.60687061  0.62430867    -0.74400
O803        O  0.43816276  0.68015222  0.57288721    -0.74800
O804        O  0.33208735  0.57646541  0.57099787    -0.74700
O805        O  0.25296177  0.57190657  0.57192054    -0.74500
C806        C  0.26986814  0.71879189  0.56687523     0.77300
C807        C  0.40565483  0.77568894  0.62086901     0.77700
C808        C  0.22729481  0.63193646  0.62191658     0.76700
C809        C  0.36959117  0.59672737  0.62178355     0.77100
C810        C  0.45203248  0.72511686  0.56692336     0.78200
C811        C  0.28524761  0.55834326  0.56561986     0.77300
Zn812      Zn  0.99738584  0.50094659  0.73506659     1.49700
Zn813      Zn  0.42991564  0.95631497  0.70494061     1.49400
Zn814      Zn  0.02483513  0.57335023  0.70462655     1.49100
Zn815      Zn  0.04217778  0.96778734  0.70348938     1.49500
O816        O  0.99766898  0.50165047  0.71149257    -1.84000
O817        O  0.43164646  0.97041191  0.74543215    -0.74600
O818        O  0.40943234  0.49601423  0.68783028    -0.74500
O819        O  0.04962662  0.62414008  0.72425047    -0.74000
O820        O  0.37925682  0.92614386  0.72430844    -0.74600
O821        O  0.03908768  0.56971443  0.74485388    -0.74200
O822        O  0.47408647  0.57744966  0.68987357    -0.74800
O823        O  0.10003770  0.52364634  0.68919119    -0.74200
O824        O  0.42616976  0.90187239  0.68875851    -0.75000
O825        O  0.08286327  0.59007594  0.68826742    -0.74400
O826        O  0.50884158  0.91680635  0.68727684    -0.74800
O827        O  0.06853626  0.93986580  0.72258823    -0.74700
O828        O  0.02379653  0.94963482  0.74369443    -0.74500
C829        C  0.38690876  0.93810401  0.73978395     0.77300
C830        C  0.43170240  0.54314648  0.68314957     0.77700
C831        C  0.05463554  0.61534150  0.73951472     0.76700
C832        C  0.10727854  0.56641547  0.68286541     0.77100
C833        C  0.46197156  0.89455284  0.68184194     0.78200
C834        C  0.05408269  0.93317224  0.73789035     0.77300
C835        C  0.33059180  0.66652805  0.15607803     0.45600
H836        H  0.33057693  0.66607671  0.14222960    -0.03400
C837        C  0.33022885  0.66636575  0.18851865     0.45600
H838        H  0.33045822  0.66592311  0.20240982    -0.03400
C839        C  0.27315678  0.63871567  0.16416243    -0.17100
C840        C  0.35922515  0.63707299  0.16394438    -0.16900
C841        C  0.35939634  0.72347416  0.16424806    -0.17300
C842        C  0.27532295  0.63994132  0.18131753    -0.17200
C843        C  0.35832899  0.63871872  0.18103045    -0.16800
C844        C  0.35693593  0.72070697  0.18138713    -0.17100
C845        C  0.50310873  0.50192920  0.14654360     0.45600
H846        H  0.50120259  0.50187324  0.16038632    -0.03400
C847        C  0.50738658  0.50227027  0.11408547     0.45600
H848        H  0.50886849  0.50215206  0.10018193    -0.03400
C849        C  0.47096801  0.93950281  0.13757776    -0.17100
C850        C  0.47373094  0.52974881  0.13792416    -0.16900
C851        C  0.05551849  0.52698526  0.13809408    -0.17300
C852        C  0.47494824  0.94238604  0.12045417    -0.17200
C853        C  0.47706989  0.52854736  0.12084565    -0.16800
C854        C  0.05324400  0.52352818  0.12098444    -0.17100
Zn855      Zn  0.21044393  0.80364987  0.92003684     1.49700
Zn856      Zn  0.20708048  0.91251315  0.92065819     1.49400
Zn857      Zn  0.09911445  0.80353897  0.91932789     1.49100
Zn858      Zn  0.16850813  0.83805158  0.94874985     1.49500
O859        O  0.17139627  0.83965296  0.92563910    -1.84000
O860        O  0.26951858  0.85039619  0.90496374    -0.74600
O861        O  0.16184643  0.92726610  0.90530633    -0.74500
O862        O  0.08888165  0.74333809  0.90483128    -0.73400
O863        O  0.27049092  0.92711930  0.90694760    -0.74600
O864        O  0.16375195  0.73920743  0.90641046    -0.74200
O865        O  0.08659435  0.85229188  0.90483160    -0.74800
O866        O  0.10446271  0.83586096  0.95767686    -0.74200
O867        O  0.22493736  0.95686292  0.94201285    -0.75000
O868        O  0.05047407  0.77652222  0.93988080    -0.74400
O869        O  0.22747440  0.89874088  0.95894088    -0.74800
O870        O  0.17010178  0.77631966  0.95685709    -0.74700
O871        O  0.23800656  0.78741939  0.94149405    -0.74500
C872        C  0.28835664  0.89810640  0.90085926     0.77300
C873        C  0.11545484  0.89887452  0.89978135     0.77700
C874        C  0.11710940  0.72214529  0.90077445     0.76700
C875        C  0.06007199  0.79734404  0.95443032     0.77100
C876        C  0.23507506  0.94445147  0.95623579     0.78200
C877        C  0.21294924  0.77484064  0.95532137     0.77300
Zn878      Zn  0.29329414  0.69971790  0.05116945     1.49700
Zn879      Zn  0.29887558  0.59203137  0.05095192     1.49400
Zn880      Zn  0.33218342  0.66263109  0.02196710     1.49100
Zn881      Zn  0.40608175  0.70116698  0.05022424     1.49500
O882        O  0.33256363  0.66409934  0.04511563    -1.84000
O883        O  0.23283537  0.65188920  0.06591849    -0.74600
O884        O  0.27837520  0.54544459  0.03012489    -0.74500
O885        O  0.32954017  0.72283631  0.01299892    -0.74000
O886        O  0.23653642  0.57731043  0.06540689    -0.74600
O887        O  0.26862003  0.72149197  0.03010621    -0.74200
O888        O  0.27148916  0.60089343  0.01314503    -0.74800
O889        O  0.45062241  0.72632021  0.02875854    -0.74200
O890        O  0.34825426  0.58049276  0.06535974    -0.75000
O891        O  0.39501802  0.66347693  0.01229011    -0.74400
O892        O  0.42375647  0.65488707  0.06434750    -0.74800
O893        O  0.41680474  0.76095847  0.06504545    -0.74700
O894        O  0.33994977  0.76178776  0.06553182    -0.74500
C895        C  0.21615688  0.60504134  0.07073678     0.77300
C896        C  0.26561961  0.55590092  0.01600246     0.77700
C897        C  0.29144908  0.73175167  0.01586861     0.76700
C898        C  0.43936446  0.70323894  0.01454064     0.77100
C899        C  0.39586436  0.60883321  0.06989771     0.78200
C900        C  0.38752257  0.77972813  0.07034812     0.77300
C901        C  0.20048235  0.74303258  0.98438253    -0.26200
C902        C  0.23425742  0.76302771  0.97047854    -0.14300
C903        C  0.28814871  0.77762937  0.97241675     0.36400
C904        C  0.30623934  0.77080595  0.98781374    -0.25600
C905        C  0.27207004  0.74926107  0.00153961    -0.14900
C906        C  0.21858177  0.73616659  0.99975857     0.37400
N907        N  0.18115412  0.71430851  0.01305657    -0.89100
H908        H  0.15916167  0.73238955  0.98337560     0.18600
H909        H  0.34750613  0.78124772  0.98888239     0.18600
N910        N  0.32573803  0.79986514  0.95917648    -0.88200
H911        H  0.19370486  0.74046993  0.02316644     0.35900
H912        H  0.17922147  0.67911759  0.01662520     0.41000
H913        H  0.32658098  0.83445519  0.95539320     0.40600
H914        H  0.31429941  0.77339799  0.94918276     0.35500
C915        C  0.26783027  0.48126631  0.00168660    -0.26200
C916        C  0.25029488  0.51856849  0.00190629    -0.14300
C917        C  0.22725508  0.52595142  0.98737492     0.36400
C918        C  0.22501710  0.01140756  0.97266780    -0.25600
C919        C  0.24988197  0.98054137  0.97057974    -0.14900
C920        C  0.28043390  0.97719732  0.98369410     0.37400
N921        N  0.30760762  0.94722680  0.98168817    -0.89100
H922        H  0.28630542  0.47565251  0.01264089     0.18600
H923        H  0.20011759  0.01297106  0.96287179     0.18600
N924        N  0.20667236  0.56201092  0.98730731    -0.88200
H925        H  0.29466138  0.91904004  0.99102828     0.35900
H926        H  0.34781873  0.97215751  0.98350085     0.41000
H927        H  0.16683939  0.54152826  0.98406662     0.40600
H928        H  0.22640031  0.58964358  0.97805695     0.35500
C929        C  0.45465709  0.70317841  0.98387852    -0.26200
C930        C  0.47445950  0.72474285  0.99978656    -0.14300
C931        C  0.00380098  0.78596905  0.99768679     0.36400
C932        C  0.02930580  0.80679485  0.98255247    -0.25600
C933        C  0.02302278  0.77473037  0.96856205    -0.14900
C934        C  0.48230264  0.72613687  0.96914232     0.37400
N935        N  0.46025455  0.70341350  0.95317720    -0.89100
H936        H  0.41644178  0.66889257  0.98280570     0.18600
H937        H  0.05526024  0.84847552  0.98188242     0.18600
N938        N  0.01053990  0.82031281  0.01148508    -0.88200
H939        H  0.45174377  0.72982781  0.94696515     0.35900
H940        H  0.42441330  0.66933801  0.95463177     0.41000
H941        H  0.99836733  0.84710424  0.00773566     0.40600
H942        H  0.05069726  0.84094879  0.01429031     0.35500
C943        C  0.41352075  0.89710920  0.09740029    -0.26200
C944        C  0.45137554  0.89811888  0.10850159    -0.14300
C945        C  0.46891704  0.86056763  0.10679206     0.36400
C946        C  0.44667216  0.82210018  0.09437118    -0.25600
C947        C  0.40896169  0.82127879  0.08319676    -0.14900
C948        C  0.39209777  0.85909849  0.08481313     0.37400
N949        N  0.35445615  0.86003530  0.07346182    -0.89100
H950        H  0.40115868  0.92670326  0.09833249     0.18600
H951        H  0.45960924  0.79285746  0.09334402     0.18600
N952        N  0.02383066  0.87614292  0.11532277    -0.88200
H953        H  0.37183699  0.89620150  0.06754007     0.35900
H954        H  0.32241213  0.85710234  0.08043223     0.41000
H955        H  0.03720085  0.90594931  0.12427798     0.40600
H956        H  0.05489154  0.88583069  0.10691163     0.35500
C957        C  0.49041204  0.59052746  0.09828304    -0.26200
C958        C  0.45523150  0.55118146  0.10882530    -0.14300
C959        C  0.40077452  0.52992990  0.10630409     0.36400
C960        C  0.38239009  0.54873868  0.09334602    -0.25600
C961        C  0.41758479  0.58852195  0.08277321    -0.14900
C962        C  0.47221485  0.60968170  0.08539293     0.37400
N963        N  0.50945093  0.64974811  0.07482656    -0.89100
H964        H  0.53240944  0.60592117  0.09987876     0.18600
H965        H  0.34023828  0.53224208  0.09166720     0.18600
N966        N  0.36407668  0.48853376  0.11657758    -0.88200
H967        H  0.53357135  0.63609438  0.06932421     0.35900
H968        H  0.53311103  0.68201517  0.08233884     0.41000
H969        H  0.34051687  0.45689965  0.10882884     0.40600
H970        H  0.33954800  0.50118791  0.12236903     0.35500
C971        C  0.16794134  0.61800051  0.09464485    -0.26200
C972        C  0.17424321  0.58345898  0.08359412    -0.14300
C973        C  0.14285848  0.52922435  0.08578859     0.36400
C974        C  0.10493972  0.51081496  0.09847290    -0.25600
C975        C  0.09860969  0.54528540  0.10938668    -0.14900
C976        C  0.13069848  0.59945430  0.10762648     0.37400
N977        N  0.12562692  0.63534720  0.11901008    -0.89100
H978        H  0.19276114  0.65966954  0.09333546     0.18600
H979        H  0.07972773  0.46922769  0.09968523     0.18600
N980        N  0.14857691  0.49260442  0.07503116    -0.88200
H981        H  0.08788918  0.63129742  0.11783613     0.35900
H982        H  0.15214010  0.67385384  0.11594135     0.41000
H983        H  0.11230512  0.46905178  0.06930536     0.40600
H984        H  0.15779544  0.46878528  0.08243713     0.35500
C985        C  0.36853829  0.55569870  0.15943707    -0.26200
C986        C  0.38452276  0.60809415  0.15515042    -0.14300
C987        C  0.43104970  0.63461816  0.14566734     0.36400
C988        C  0.46148341  0.60958054  0.14151890    -0.25600
C989        C  0.44593508  0.55743075  0.14600037    -0.14900
C990        C  0.39817899  0.53035812  0.15493229     0.37400
N991        N  0.37803848  0.47665646  0.15921499    -0.89100
H992        H  0.33295604  0.53448562  0.16673047     0.18600
H993        H  0.99200507  0.63000403  0.13194322     0.18600
N994        N  0.44915652  0.68805284  0.14121462    -0.88200
H995        H  0.40697213  0.97428571  0.16679585     0.35900
H996        H  0.37270736  0.95569063  0.14865920     0.41000
H997        H  0.42182536  0.68880676  0.13289137     0.40600
H998        H  0.98149303  0.70313075  0.13246422     0.35500
C999        C  0.44032557  0.81310515  0.16141486    -0.26200
C1000       C  0.38912563  0.77690960  0.15579206    -0.14300
C1001       C  0.36420629  0.79609236  0.14487855     0.36400
C1002       C  0.38983946  0.84977382  0.14030817    -0.25600
C1003       C  0.44106514  0.88594850  0.14594381    -0.14900
C1004       C  0.46586659  0.86643714  0.15682326     0.37400
N1005       N  0.51743917  0.89967537  0.16330753    -0.89100
H1006       H  0.46049284  0.79993731  0.16989834     0.18600
H1007       H  0.36986105  0.86342585  0.13193057     0.18600
N1008       N  0.31201059  0.76160749  0.13895760    -0.88200
H1009       H  0.02983593  0.90433863  0.17424040     0.35900
H1010       H  0.04481883  0.94103416  0.15713244     0.41000
H1011       H  0.31444282  0.73381732  0.13116416     0.40600
H1012       H  0.29828742  0.78180313  0.13152841     0.35500
C1013       C  0.18282154  0.62982190  0.15976048    -0.26200
C1014       C  0.21963236  0.61251252  0.15553174    -0.14300
C1015       C  0.20012204  0.56434238  0.14668753     0.36400
C1016       C  0.14594476  0.53582934  0.14257290    -0.25600
C1017       C  0.10918210  0.55333113  0.14669374    -0.14900
C1018       C  0.12861630  0.60124567  0.15567359     0.37400
N1019       N  0.09539067  0.62342893  0.16042419    -0.89100
H1020       H  0.19627371  0.66578686  0.16686956     0.18600
H1021       H  0.13244782  0.49964247  0.13558677     0.18600
N1022       N  0.23324932  0.54186973  0.14211765    -0.88200
H1023       H  0.09465773  0.62474236  0.17348720     0.35900
H1024       H  0.05670920  0.60014389  0.15660033     0.41000
H1025       H  0.27204827  0.56554310  0.14578447     0.40600
H1026       H  0.23366513  0.53967542  0.12907013     0.35500
C1027       C  0.45122816  0.59523723  0.65760587    -0.26200
C1028       C  0.41297158  0.55690524  0.66788095    -0.14300
C1029       C  0.36044765  0.52871002  0.66205800     0.36400
C1030       C  0.34768164  0.53986365  0.64636080    -0.25600
C1031       C  0.38629453  0.57762401  0.63610619    -0.14900
C1032       C  0.43837542  0.60563842  0.64182824     0.37400
N1033       N  0.47776693  0.64661972  0.63201984    -0.89100
H1034       H  0.49184670  0.61684209  0.66166666     0.18600
H1035       H  0.30700965  0.51969926  0.64226552     0.18600
N1036       N  0.31895025  0.48996465  0.67190711    -0.88200
H1037       H  0.50871946  0.63815818  0.63001215     0.35900
H1038       H  0.49231550  0.68132725  0.63895805     0.41000
H1039       H  0.31848527  0.50625473  0.68357815     0.40600
H1040       H  0.32594132  0.45831994  0.67348175     0.35500
C1041       C  0.46684172  0.81478286  0.64450071    -0.26200
C1042       C  0.42681409  0.81413396  0.63451123    -0.14300
C1043       C  0.39902335  0.84010587  0.64003832     0.36400
C1044       C  0.41059417  0.86465493  0.65575412    -0.25600
C1045       C  0.44994185  0.86456215  0.66598691    -0.14900
C1046       C  0.47933085  0.84032368  0.65999464     0.37400
N1047       N  0.98785470  0.80338333  0.67560342    -0.89100
H1048       H  0.48747931  0.79379473  0.64042939     0.18600
H1049       H  0.38885108  0.88436417  0.65996523     0.18600
N1050       N  0.35686670  0.83854692  0.63018002    -0.88200
H1051       H  0.96336548  0.79243471  0.68610547     0.35900
H1052       H  0.02372671  0.83565936  0.67878427     0.41000
H1053       H  0.37357577  0.86002751  0.61937661     0.40600
H1054       H  0.33857609  0.85726346  0.63645100     0.35500
C1055       C  0.14149500  0.54779981  0.65671353    -0.26200
C1056       C  0.13959654  0.58524891  0.66754529    -0.14300
C1057       C  0.16352435  0.63798611  0.66245814     0.36400
C1058       C  0.18962285  0.65189627  0.64709112    -0.25600
C1059       C  0.19130683  0.61433570  0.63633317    -0.14900
C1060       C  0.16688696  0.56182946  0.64120889     0.37400
N1061       N  0.16989313  0.52297344  0.63082100    -0.89100
H1062       H  0.12253587  0.50703706  0.66016330     0.18600
H1063       H  0.20945069  0.69264411  0.64360576     0.18600
N1064       N  0.16339406  0.67854645  0.67270810    -0.88200
H1065       H  0.15205567  0.98147089  0.63785291     0.35900
H1066       H  0.18844957  0.50593723  0.63760446     0.41000
H1067       H  0.17810687  0.67738309  0.68449494     0.40600
H1068       H  0.12481695  0.67240384  0.67388693     0.35500
C1069       C  0.21703525  0.01061828  0.54203730    -0.26200
C1070       C  0.26842186  0.52367214  0.55086371    -0.14300
C1071       C  0.29165090  0.99429126  0.54440415     0.36400
C1072       C  0.27114362  0.95887311  0.53102763    -0.25600
C1073       C  0.22124572  0.94464580  0.52463853    -0.14900
C1074       C  0.19731743  0.97541039  0.52867013     0.37400
N1075       N  0.15490241  0.97299451  0.51890516    -0.89100
H1076       H  0.20400700  0.53989471  0.54563877     0.18600
H1077       H  0.29316658  0.94052746  0.52594911     0.18600
N1078       N  0.34801332  0.51150169  0.55120762    -0.88200
H1079       H  0.16895861  0.00884307  0.51292016     0.35900
H1080       H  0.12547286  0.97087438  0.52701669     0.41000
H1081       H  0.37467481  0.54993651  0.54809727     0.40600
H1082       H  0.36234490  0.48833353  0.54550101     0.35500
C1083       C  0.04020647  0.73465044  0.53005436    -0.26200
C1084       C  0.06897132  0.78918377  0.52953539    -0.14300
C1085       C  0.05930172  0.81898207  0.54179143     0.36400
C1086       C  0.52653145  0.80137563  0.55443817    -0.25600
C1087       C  0.49461675  0.74732913  0.55438953    -0.14900
C1088       C  0.00162415  0.70967529  0.54226349     0.37400
N1089       N  0.97334719  0.65384448  0.54199480    -0.89100
H1090       H  0.04847037  0.71130963  0.52109531     0.18600
H1091       H  0.52132338  0.82521339  0.56399543     0.18600
N1092       N  0.08660809  0.87454838  0.54224622    -0.88200
H1093       H  0.93312130  0.64182328  0.54090839     0.35900
H1094       H  0.47274473  0.64412781  0.55067466     0.41000
H1095       H  0.08288690  0.88726272  0.53056290     0.40600
H1096       H  0.12614428  0.88768738  0.54501102     0.35500
C1097       C  0.26117900  0.79195664  0.55596927    -0.26200
C1098       C  0.24767872  0.73962564  0.55449265    -0.14300
C1099       C  0.21742278  0.71037960  0.54069975     0.36400
C1100       C  0.20189882  0.73484833  0.52853477    -0.25600
C1101       C  0.21654400  0.78822486  0.52986783    -0.14900
C1102       C  0.24580517  0.81618034  0.54405673     0.37400
N1103       N  0.26104540  0.86978169  0.54663618    -0.89100
H1104       H  0.28424879  0.81474176  0.56656143     0.18600
H1105       H  0.17759533  0.71178103  0.51822459     0.18600
N1106       N  0.20346634  0.65644795  0.53879646    -0.88200
H1107       H  0.30205833  0.88991200  0.54777985     0.35900
H1108       H  0.24496019  0.87370058  0.55797135     0.41000
H1109       H  0.21861093  0.65171621  0.52738589     0.40600
H1110       H  0.16240543  0.63489397  0.53822236     0.35500
C1111       C  0.22680633  0.52827004  0.48007881    -0.26200
C1112       C  0.28181718  0.55877773  0.48227970    -0.14300
C1113       C  0.30912975  0.53232498  0.48759485     0.36400
C1114       C  0.27537448  0.97504679  0.49076848    -0.25600
C1115       C  0.22059264  0.94296486  0.48829609    -0.14900
C1116       C  0.19207470  0.96772855  0.48226341     0.37400
N1117       N  0.13717034  0.93860237  0.47815211    -0.89100
H1118       H  0.20477454  0.54692321  0.47556483     0.18600
H1119       H  0.29826452  0.95778394  0.49569702     0.18600
N1120       N  0.36496650  0.56082312  0.48987852    -0.88200
H1121       H  0.11620356  0.94951061  0.48653858     0.35900
H1122       H  0.12343276  0.89859236  0.47933419     0.41000
H1123       H  0.38222311  0.54355413  0.48235138     0.40600
H1124       H  0.37304927  0.55684959  0.50232594     0.35500
C1125       C  0.03493969  0.72991260  0.48439790    -0.26200
C1126       C  0.05286696  0.77906037  0.49220554    -0.14300
C1127       C  0.01409747  0.79583953  0.49493504     0.36400
C1128       C  0.46527797  0.76945031  0.49059879    -0.25600
C1129       C  0.44902908  0.72250448  0.48172565    -0.14900
C1130       C  0.48818648  0.70737492  0.47810181     0.37400
N1131       N  0.47407745  0.65986486  0.46907963    -0.89100
H1132       H  0.06243889  0.71490671  0.48249876     0.18600
H1133       H  0.43697144  0.78327041  0.49287145     0.18600
N1134       N  0.02786201  0.84673135  0.50146906    -0.88200
H1135       H  0.48304682  0.63599162  0.47653324     0.35900
H1136       H  0.49760751  0.66887212  0.45836662     0.41000
H1137       H  0.06830326  0.86883752  0.50327991     0.40600
H1138       H  0.00915214  0.84200749  0.51302650     0.35500
C1139       C  0.30500066  0.76912557  0.48981698    -0.26200
C1140       C  0.27720606  0.72118314  0.48128982    -0.14300
C1141       C  0.22256262  0.70363974  0.47818860     0.36400
C1142       C  0.19826575  0.73388651  0.48344362    -0.25600
C1143       C  0.22605921  0.78180826  0.49197460    -0.14900
C1144       C  0.28081405  0.79956851  0.49495047     0.37400
N1145       N  0.31393739  0.84937229  0.50264034    -0.89100
H1146       H  0.34690574  0.78461205  0.49178224     0.18600
H1147       H  0.15642605  0.71856152  0.48138337     0.18600
N1148       N  0.18980414  0.65451181  0.47005819    -0.88200
H1149       H  0.32562389  0.84262899  0.51427216     0.35900
H1150       H  0.29394652  0.87075614  0.50467920     0.41000
H1151       H  0.21000928  0.63346962  0.46776258     0.40600
H1152       H  0.17855522  0.66230772  0.45850551     0.35500
C1153       C  0.39889385  0.99097029  0.87277232    -0.26200
C1154       C  0.40325062  0.95602252  0.86155388    -0.14300
C1155       C  0.36937907  0.90178055  0.86321526     0.36400
C1156       C  0.33289975  0.88426935  0.87626984    -0.25600
C1157       C  0.32944232  0.91919456  0.88781353    -0.14900
C1158       C  0.36258555  0.97332806  0.88593243     0.37400
N1159       N  0.36015515  0.01018319  0.89752339    -0.89100
H1160       H  0.42297343  0.52411652  0.87311019     0.18600
H1161       H  0.30734798  0.84266167  0.87746508     0.18600
N1162       N  0.37336887  0.86307610  0.85291952    -0.88200
H1163       H  0.39332282  0.53634324  0.89830393     0.35900
H1164       H  0.37256146  0.00418575  0.90914074     0.41000
H1165       H  0.40563390  0.87935843  0.84489051     0.40600
H1166       H  0.33925153  0.84464879  0.84568320     0.35500
C1167       C  0.04016374  0.89740492  0.88512915    -0.26200
C1168       C  0.09474400  0.91910630  0.88664525    -0.14300
C1169       C  0.12773316  0.95645221  0.87487660     0.36400
C1170       C  0.10518923  0.97079749  0.86181312    -0.25600
C1171       C  0.05043516  0.94899574  0.86048069    -0.14900
C1172       C  0.01796399  0.91242805  0.87236610     0.37400
N1173       N  0.46440179  0.90019973  0.87552787    -0.89100
H1174       H  0.01426394  0.86888652  0.89404868     0.18600
H1175       H  0.13214498  0.49266060  0.85366240     0.18600
N1176       N  0.18387914  0.97958021  0.87601883    -0.88200
H1177       H  0.45602126  0.91285376  0.88687763     0.35900
H1178       H  0.44437511  0.85942030  0.87536262     0.41000
H1179       H  0.19913181  0.01999970  0.87706269     0.40600
H1180       H  0.19355906  0.45371323  0.86360653     0.35500
C1181       C  0.09507950  0.60429504  0.87420433    -0.26200
C1182       C  0.05540157  0.60067951  0.86342657    -0.14300
C1183       C  0.03455095  0.63506385  0.86544047     0.36400
C1184       C  0.05488019  0.67380024  0.87784190    -0.25600
C1185       C  0.09551659  0.67851704  0.88850841    -0.14900
C1186       C  0.11553191  0.64291208  0.88674560     0.37400
N1187       N  0.15573344  0.64541149  0.89778101    -0.89100
H1188       H  0.10975239  0.57644983  0.87288084     0.18600
H1189       H  0.03882048  0.70053673  0.87901919     0.18600
N1190       N  0.48640192  0.62894606  0.85404011    -0.88200
H1191       H  0.16634357  0.61677662  0.89460651     0.35900
H1192       H  0.13953412  0.63664660  0.90978629     0.41000
H1193       H  0.49929373  0.66457910  0.84800765     0.40600
H1194       H  0.45502849  0.62333914  0.86186617     0.35500
C1195       C  0.27425926  0.84119082  0.76612840    -0.26200
C1196       C  0.27076583  0.87495713  0.77806258    -0.14300
C1197       C  0.30430970  0.92888519  0.77704139     0.36400
C1198       C  0.34100804  0.94815279  0.76411639    -0.25600
C1199       C  0.34428797  0.91459155  0.75199379    -0.14900
C1200       C  0.31120025  0.86003139  0.75321236     0.37400
N1201       N  0.31435138  0.82250451  0.74205499    -0.89100
H1202       H  0.24772425  0.79961746  0.76684523     0.18600
H1203       H  0.36680323  0.98988069  0.76342663     0.18600
N1204       N  0.29955002  0.96436137  0.78857023    -0.88200
H1205       H  0.32266186  0.79766042  0.74926532     0.35900
H1206       H  0.34549388  0.83965735  0.73366213     0.41000
H1207       H  0.29128700  0.99003468  0.78182284     0.40600
H1208       H  0.33608974  0.98637660  0.79433011     0.35500
C1209       C  0.06774969  0.86450451  0.77602452    -0.26200
C1210       C  0.12139709  0.87875905  0.77524707    -0.14300
C1211       C  0.15109519  0.90672845  0.76123342     0.36400
C1212       C  0.12737343  0.92085068  0.74858011    -0.25600
C1213       C  0.07454971  0.90879597  0.74972877    -0.14900
C1214       C  0.04400589  0.87949679  0.76346491     0.37400
N1215       N  0.98899813  0.86495078  0.76455957    -0.89100
H1216       H  0.04409215  0.84077683  0.78625425     0.18600
H1217       H  0.15123290  0.94374173  0.73822250     0.18600
N1218       N  0.20607460  0.92254824  0.76001135    -0.88200
H1219       H  0.97241888  0.84400120  0.77546971     0.35900
H1220       H  0.96995312  0.83973781  0.75454246     0.41000
H1221       H  0.22648558  0.96315395  0.75900209     0.40600
H1222       H  0.21241568  0.90662247  0.74901169     0.35500
C1223       C  0.11318538  0.65626241  0.76351226    -0.26200
C1224       C  0.07787310  0.65768764  0.75181003    -0.14300
C1225       C  0.06045786  0.69508702  0.75344839     0.36400
C1226       C  0.07901065  0.73053802  0.76682593    -0.25600
C1227       C  0.11520761  0.72979940  0.77827661    -0.14900
C1228       C  0.13276022  0.69273158  0.77655907     0.37400
N1229       N  0.17177349  0.69327039  0.78760198    -0.89100
H1230       H  0.12615703  0.62706146  0.76236761     0.18600
H1231       H  0.06641055  0.75997161  0.76810050     0.18600
N1232       N  0.02293838  0.69589346  0.74191431    -0.88200
H1233       H  0.20432184  0.69850730  0.78044668     0.35900
H1234       H  0.15620900  0.65670704  0.79321948     0.41000
H1235       H  0.56096504  0.71302507  0.72642332     0.40600
H1236       H  0.52899921  0.73288346  0.73966147     0.35500
C1237       C  0.10471582  0.97037492  0.81535605    -0.26200
C1238       C  0.05525135  0.94210326  0.82299316    -0.14300
C1239       C  0.03665826  0.88808465  0.82555978     0.36400
C1240       C  0.06723504  0.86389184  0.82069124    -0.25600
C1241       C  0.11668410  0.89200996  0.81300838    -0.14900
C1242       C  0.13523050  0.94633260  0.81034390     0.37400
N1243       N  0.18572121  0.97881915  0.80301428    -0.89100
H1244       H  0.12247816  0.51257210  0.81550718     0.18600
H1245       H  0.05134873  0.82235162  0.82248262     0.18600
N1246       N  0.98630996  0.85737246  0.83318188    -0.88200
H1247       H  0.18691733  0.96584443  0.79094953     0.35900
H1248       H  0.21455410  0.97617705  0.81007820     0.41000
H1249       H  0.46294345  0.82949709  0.82549659     0.40600
H1250       H  0.99177412  0.83981484  0.84374860     0.35500
C1251       C  0.35295469  0.96210007  0.82935453    -0.26200
C1252       C  0.39238748  0.94914959  0.82427240    -0.14300
C1253       C  0.37548153  0.90294636  0.81465534     0.36400
C1254       C  0.32107442  0.87163869  0.81060397    -0.25600
C1255       C  0.28143153  0.88481488  0.81555023    -0.14900
C1256       C  0.29862200  0.93062004  0.82564319     0.37400
N1257       N  0.26292814  0.94774136  0.83215579    -0.89100
H1258       H  0.35640388  0.48969497  0.83735774     0.18600
H1259       H  0.30952058  0.83682318  0.80304710     0.18600
N1260       N  0.41312830  0.88638648  0.80968286    -0.88200
H1261       H  0.25690341  0.43650512  0.84501431     0.35900
H1262       H  0.22415555  0.92165060  0.82919482     0.41000
H1263       H  0.43929710  0.91380878  0.80129644     0.40600
H1264       H  0.39456415  0.85084770  0.80319002     0.35500
C1265       C  0.13852686  0.70203917  0.82462752    -0.26200
C1266       C  0.10990013  0.72175484  0.81584076    -0.14300
C1267       C  0.05597386  0.68626409  0.81248473     0.36400
C1268       C  0.03293105  0.63299283  0.81748470    -0.25600
C1269       C  0.06176123  0.61312303  0.82609397    -0.14900
C1270       C  0.11553253  0.64878941  0.82960779     0.37400
N1271       N  0.14702012  0.63057513  0.83822582    -0.89100
H1272       H  0.17998774  0.72774165  0.82690054     0.18600
H1273       H  0.99151060  0.60723033  0.81516995     0.18600
N1274       N  0.02459743  0.70453590  0.80383048    -0.88200
H1275       H  0.18532382  0.66090713  0.84000141     0.35900
H1276       H  0.14986717  0.60272690  0.83057725     0.41000
H1277       H  0.02197385  0.73256719  0.81144664     0.40600
H1278       H  0.98619708  0.67430718  0.80215333     0.35500
C1279       C  0.37813577  0.83953398  0.20689366    -0.26200
C1280       C  0.41310220  0.83975174  0.21898520    -0.14300
C1281       C  0.43111429  0.80283837  0.21825496     0.36400
C1282       C  0.41280098  0.76540415  0.20550623    -0.25600
C1283       C  0.37785992  0.76487145  0.19331134    -0.14900
C1284       C  0.35921086  0.80176490  0.19423433     0.37400
N1285       N  0.31877130  0.80012187  0.18349160    -0.89100
H1286       H  0.36456224  0.86836310  0.20753304     0.18600
H1287       H  0.42536998  0.73597074  0.20525611     0.18600
N1288       N  0.46890449  0.80440176  0.23016261    -0.88200
H1289       H  0.33581729  0.83299336  0.17587848     0.35900
H1290       H  0.30270954  0.76713767  0.17579032     0.41000
H1291       H  0.50387501  0.83914662  0.22834125     0.40600
H1292       H  0.47781872  0.77410352  0.22785941     0.35500
C1293       C  0.45357738  0.62526648  0.20987393    -0.26200
C1294       C  0.41864712  0.58437573  0.22001714    -0.14300
C1295       C  0.36418949  0.55852740  0.21632482     0.36400
C1296       C  0.34618357  0.57540363  0.20278801    -0.25600
C1297       C  0.38121376  0.61615112  0.19261237    -0.14900
C1298       C  0.43556833  0.64132270  0.19620384     0.37400
N1299       N  0.47346275  0.68297838  0.18625444    -0.89100
H1300       H  0.49552725  0.64397893  0.21236147     0.18600
H1301       H  0.30424927  0.55696017  0.20028152     0.18600
N1302       N  0.32974812  0.02474966  0.22665756    -0.88200
H1303       H  0.46160187  0.71135092  0.18467849     0.35900
H1304       H  0.47514645  0.66793151  0.17457769     0.41000
H1305       H  0.34581343  0.01127003  0.23574305     0.40600
H1306       H  0.30720030  0.99270156  0.21892220     0.35500
C1307       C  0.19048813  0.62217694  0.21936509    -0.26200
C1308       C  0.15370769  0.56943200  0.21817421    -0.14300
C1309       C  0.15422349  0.53972295  0.20416428     0.36400
C1310       C  0.19342167  0.56342543  0.19190341    -0.25600
C1311       C  0.23011210  0.61661437  0.19307566    -0.14900
C1312       C  0.22768566  0.64619479  0.20679828     0.37400
N1313       N  0.26254943  0.70108282  0.20792139    -0.89100
H1314       H  0.18891642  0.64553893  0.22977638     0.18600
H1315       H  0.19594240  0.54021164  0.18163373     0.18600
N1316       N  0.13100270  0.99522734  0.20543817    -0.88200
H1317       H  0.23983922  0.72024821  0.20846655     0.35900
H1318       H  0.28363478  0.70874836  0.21908927     0.41000
H1319       H  0.13783039  0.97603469  0.21529324     0.40600
H1320       H  0.13624191  0.97876351  0.19438596     0.35500
C1321       C  0.10873065  0.97306793  0.31513626    -0.26200
C1322       C  0.07937716  0.93505868  0.30304113    -0.14300
C1323       C  0.05769223  0.88191387  0.30714643     0.36400
C1324       C  0.06503420  0.86789564  0.32320973    -0.25600
C1325       C  0.09400337  0.90600343  0.33536006    -0.14900
C1326       C  0.11590850  0.95910157  0.33118906     0.37400
N1327       N  0.14488540  0.99912120  0.34327633    -0.89100
H1328       H  0.12457712  0.01413228  0.31239311     0.18600
H1329       H  0.04940916  0.82685705  0.32595768     0.18600
N1330       N  0.50207832  0.83520567  0.29889487    -0.88200
H1331       H  0.12628994  0.02213192  0.34476480     0.35900
H1332       H  0.18263436  0.02266537  0.33850168     0.41000
H1333       H  0.46729649  0.82185936  0.30582852     0.40600
H1334       H  0.51095310  0.80451090  0.29761649     0.35500
C1335       C  0.11816545  0.64885070  0.31193377    -0.26200
C1336       C  0.07663816  0.64854162  0.30273980    -0.14300
C1337       C  0.04899305  0.67332527  0.30969750     0.36400
C1338       C  0.06196554  0.69555551  0.32560005    -0.25600
C1339       C  0.10257458  0.69485551  0.33502377    -0.14900
C1340       C  0.13172460  0.67192684  0.32780264     0.37400
N1341       N  0.17484526  0.67078923  0.33616851    -0.89100
H1342       H  0.13968000  0.62974562  0.30697631     0.18600
H1343       H  0.04032294  0.71469122  0.33042298     0.18600
N1344       N  0.48563411  0.64315270  0.30788816    -0.88200
H1345       H  0.16207209  0.65377754  0.34787227     0.35900
H1346       H  0.20541166  0.70890837  0.33761993     0.41000
H1347       H  0.46416974  0.60254980  0.30671870     0.40600
H1348       H  0.48656619  0.66065258  0.29649756     0.35500
C1349       C  0.29933087  0.93961774  0.32364582    -0.26200
C1350       C  0.30530913  0.90451513  0.33418465    -0.14300
C1351       C  0.33502107  0.88045359  0.32839305     0.36400
C1352       C  0.35801754  0.89234097  0.31257902    -0.25600
C1353       C  0.35255652  0.92784963  0.30209489    -0.14900
C1354       C  0.32253289  0.95166406  0.30783074     0.37400
N1355       N  0.31406515  0.98760425  0.29794067    -0.89100
H1356       H  0.27553399  0.95745543  0.32756735     0.18600
H1357       H  0.38176455  0.87440537  0.30870275     0.18600
N1358       N  0.34372800  0.84464372  0.33827595    -0.88200
H1359       H  0.29914266  0.97035492  0.28630768     0.35900
H1360       H  0.34976949  0.02160198  0.29634951     0.41000
H1361       H  0.30808437  0.81069539  0.33998227     0.40600
H1362       H  0.35913057  0.86210646  0.34985401     0.35500
C1363       C  0.23645660  0.54719756  0.44107888    -0.26200
C1364       C  0.28882886  0.56549501  0.44586913    -0.14300
C1365       C  0.31924116  0.54486500  0.43824620     0.36400
C1366       C  0.29849904  0.51167425  0.42444924    -0.25600
C1367       C  0.24226483  0.99208308  0.41915363    -0.14900
C1368       C  0.20907083  0.00901377  0.42679955     0.37400
N1369       N  0.15690344  0.99301952  0.42079928    -0.89100
H1370       H  0.21236958  0.56143377  0.44733395     0.18600
H1371       H  0.32111864  0.49494117  0.41862284     0.18600
N1372       N  0.36900017  0.55363172  0.44484101    -0.88200
H1373       H  0.13513693  0.95240701  0.42145764     0.35900
H1374       H  0.15955592  0.00377714  0.40827594     0.41000
H1375       H  0.38166169  0.58124459  0.45449178     0.40600
H1376       H  0.39722776  0.56801205  0.43535373     0.35500
C1377       C  0.00173167  0.78441317  0.43134375    -0.26200
C1378       C  0.00399937  0.75255180  0.41843157    -0.14300
C1379       C  0.47896757  0.70888151  0.41828505     0.36400
C1380       C  0.44066027  0.68805843  0.43080728    -0.25600
C1381       C  0.43801105  0.71904948  0.44393329    -0.14900
C1382       C  0.47323019  0.77303350  0.44407815     0.37400
N1383       N  0.46724191  0.80682060  0.45608801    -0.89100
H1384       H  0.02922679  0.82582388  0.43133863     0.18600
H1385       H  0.41175601  0.64752137  0.43008718     0.18600
N1386       N  0.48206106  0.67562116  0.40540347    -0.88200
H1387       H  0.98570486  0.83647816  0.45389490     0.35900
H1388       H  0.43102454  0.80555857  0.45386367     0.41000
H1389       H  0.47166552  0.68594019  0.39413298     0.40600
H1390       H  0.45425842  0.63672372  0.40746772     0.35500
C1391       C  0.30092271  0.77055249  0.44535807    -0.26200
C1392       C  0.28827415  0.71793887  0.44342152    -0.14300
C1393       C  0.26082895  0.69067827  0.42889722     0.36400
C1394       C  0.24740103  0.71573838  0.41673208    -0.25600
C1395       C  0.25814919  0.76706167  0.41899311    -0.14900
C1396       C  0.28472218  0.79489265  0.43346294     0.37400
N1397       N  0.29572452  0.84783053  0.43599231    -0.89100
H1398       H  0.32384639  0.79304818  0.45596395     0.18600
H1399       H  0.22557032  0.69374380  0.40584844     0.18600
N1400       N  0.24457970  0.63673165  0.42649595    -0.88200
H1401       H  0.33646877  0.87096008  0.43721201     0.35900
H1402       H  0.27825777  0.84994229  0.44726189     0.41000
H1403       H  0.26089256  0.63213708  0.41530133     0.40600
H1404       H  0.20357558  0.61703116  0.42524698     0.35500
Zn1405     Zn  0.69534094  0.40346786  0.37324921     1.49700
Zn1406     Zn  0.70109839  0.29683735  0.37189863     1.49400
Zn1407     Zn  0.65727260  0.32694204  0.40350596     1.49100
Zn1408     Zn  0.58898925  0.29447224  0.37131381     1.49500
O1409       O  0.66064803  0.33038942  0.37972597    -1.84000
O1410       O  0.75460326  0.41810652  0.35754401    -0.74600
O1411       O  0.72982508  0.27283583  0.39104024    -0.74500
O1412       O  0.69566800  0.39541958  0.41394917    -0.74000
O1413       O  0.75818042  0.34392754  0.35641948    -0.74600
O1414       O  0.72048234  0.45242195  0.39321091    -0.74200
O1415       O  0.68768019  0.28524095  0.41251111    -0.74800
O1416       O  0.53398216  0.26968550  0.38982632    -0.74200
O1417       O  0.65743678  0.23809025  0.35629642    -0.75000
O1418       O  0.58584800  0.29824278  0.41209708    -0.74400
O1419       O  0.57965742  0.23615362  0.35604926    -0.74800
O1420       O  0.57886448  0.34074349  0.35532598    -0.74700
O1421       O  0.64939194  0.41814997  0.35817949    -0.74500
C1422       C  0.77264844  0.38970394  0.35117088     0.77300
C1423       C  0.71817647  0.26924759  0.40653553     0.77700
C1424       C  0.71772487  0.44166490  0.40867707     0.76700
C1425       C  0.54058288  0.27576418  0.40558792     0.77100
C1426       C  0.61147502  0.22118668  0.35029782     0.78200
C1427       C  0.60667971  0.38776975  0.35076750     0.77300
Zn1428     Zn  0.56927222  0.03486891  0.26590059     1.49700
Zn1429     Zn  0.97029429  0.04539570  0.26626019     1.49400
Zn1430     Zn  0.50147706  0.50405082  0.23469993     1.49100
Zn1431     Zn  0.96216524  0.43208917  0.26718900     1.49500
O1432       O  0.50081308  0.50309188  0.25851421    -1.84000
O1433       O  0.57855686  0.09121013  0.28208221    -0.74600
O1434       O  0.93915033  0.06704511  0.24737154    -0.74500
O1435       O  0.56874804  0.02229414  0.22525715    -0.74000
O1436       O  0.50138762  0.09044416  0.28204275    -0.74600
O1437       O  0.62151157  0.06203955  0.24675017    -0.74200
O1438       O  0.97867776  0.05171524  0.22577398    -0.74800
O1439       O  0.93702823  0.37913802  0.24828602    -0.74200
O1440       O  0.90438897  0.49788148  0.28357157    -0.75000
O1441       O  0.95121836  0.43178647  0.22682104    -0.74400
O1442       O  0.90327581  0.42134773  0.28251538    -0.74800
O1443       O  0.51002469  0.41692864  0.28116158    -0.74700
O1444       O  0.58540355  0.49056772  0.28181628    -0.74500
C1445       C  0.54699048  0.10604801  0.28813533     0.77300
C1446       C  0.94905816  0.06865953  0.23180665     0.77700
C1447       C  0.61416517  0.05038554  0.23124681     0.76700
C1448       C  0.93370802  0.38664057  0.23279602     0.77100
C1449       C  0.88778358  0.45182376  0.28891464     0.78200
C1450       C  0.55532966  0.44519872  0.28737158     0.77300
C1451       C  0.66864266  0.33403313  0.81442835     0.45600
H1452       H  0.66680605  0.33435797  0.82826989    -0.03400
C1453       C  0.67108288  0.33178606  0.78204566     0.45600
H1454       H  0.67162539  0.33013614  0.76815956    -0.03400
C1455       C  0.64164775  0.36431298  0.80562696    -0.17100
C1456       C  0.72718476  0.36045102  0.80697357    -0.16900
C1457       C  0.63957990  0.27649404  0.80658965    -0.17300
C1458       C  0.64393438  0.36161695  0.78850719    -0.17200
C1459       C  0.72551564  0.35779491  0.78979091    -0.16800
C1460       C  0.64225004  0.27816015  0.78951188    -0.17100
C1461       C  0.00211304  0.00140124  0.82364715     0.45600
H1462       H  0.00284204  0.00155769  0.80979559    -0.03400
C1463       C  0.00111592  0.00114063  0.85610722     0.45600
H1464       H  0.50322379  0.00429819  0.87141007    -0.03400
C1465       C  0.53401950  0.06026357  0.83317368    -0.17100
C1466       C  0.94620195  0.47572529  0.83399277    -0.16900
C1467       C  0.52530681  0.46971770  0.83222332    -0.17300
C1468       C  0.53223226  0.05789129  0.85028217    -0.17200
C1469       C  0.94865222  0.47636177  0.85113212    -0.16800
C1470       C  0.52333020  0.46971805  0.84933245    -0.17100
C1471       C  0.66006330  0.33224752  0.52421884     0.45600
H1472       H  0.66110497  0.33221212  0.53809676    -0.03400
C1473       C  0.65911721  0.33105078  0.49176882     0.45600
H1474       H  0.65861302  0.33039118  0.47790985    -0.03400
C1475       C  0.68534581  0.30179968  0.51669270    -0.17100
C1476       C  0.60475890  0.30806921  0.51727899    -0.16900
C1477       C  0.68928510  0.38631848  0.51679238    -0.17300
C1478       C  0.68694894  0.30040720  0.49960425    -0.17200
C1479       C  0.60185990  0.30593384  0.50010654    -0.16800
C1480       C  0.68985068  0.38819425  0.49969146    -0.17100
C1481       C  0.83957205  0.17110157  0.44873894     0.45600
H1482       H  0.84092790  0.17226779  0.43483709    -0.03400
C1483       C  0.83601527  0.16763223  0.48115131     0.45600
H1484       H  0.83462252  0.16617916  0.49499159    -0.03400
C1485       C  0.81223236  0.11642768  0.45522090    -0.17100
C1486       C  0.89343199  0.19651134  0.45658272    -0.16900
C1487       C  0.81040597  0.19774532  0.45614332    -0.17300
C1488       C  0.80865428  0.11176349  0.47224106    -0.17200
C1489       C  0.89428856  0.19602939  0.47370751    -0.16800
C1490       C  0.80752060  0.19758052  0.47328684    -0.17100
Zn1491     Zn  0.75705150  0.13020578  0.58666927     1.49700
Zn1492     Zn  0.86407401  0.24022210  0.58655990     1.49400
Zn1493     Zn  0.82669751  0.16844456  0.61537671     1.49100
Zn1494     Zn  0.87019606  0.13351483  0.58707292     1.49500
O1495       O  0.83025818  0.16838235  0.59241721    -1.84000
O1496       O  0.73912098  0.17706671  0.57326892    -0.74600
O1497       O  0.88907888  0.28752690  0.60730400    -0.74500
O1498       O  0.76347325  0.17076001  0.62294258    -0.74000
O1499       O  0.81420348  0.25197115  0.57231436    -0.74600
O1500       O  0.71079996  0.10226400  0.60777784    -0.74200
O1501       O  0.88666870  0.22859058  0.62496014    -0.74800
O1502       O  0.88652780  0.10459682  0.60825498    -0.74200
O1503       O  0.92535634  0.25307209  0.57190094    -0.75000
O1504       O  0.82597300  0.10669582  0.62495132    -0.74400
O1505       O  0.93455580  0.18174543  0.57391579    -0.74800
O1506       O  0.82773496  0.07785616  0.57053310    -0.74700
O1507       O  0.74932803  0.07486549  0.57025904    -0.74500
C1508       C  0.76665345  0.22311930  0.56773707     0.77300
C1509       C  0.89970793  0.27538486  0.62150294     0.77700
C1510       C  0.72059180  0.12894488  0.62130717     0.76700
C1511       C  0.86131317  0.09363418  0.62210586     0.77100
C1512       C  0.94862858  0.22675220  0.56790530     0.78200
C1513       C  0.78173375  0.06055490  0.56447329     0.77300
Zn1514     Zn  0.50201813  0.99979269  0.73615268     1.49700
Zn1515     Zn  0.92579188  0.45914229  0.70413178     1.49400
Zn1516     Zn  0.52813552  0.07064532  0.70548860     1.49100
Zn1517     Zn  0.54719607  0.47131674  0.70362870     1.49500
O1518       O  0.50167712  0.99941498  0.71245700    -1.84000
O1519       O  0.92739360  0.47390582  0.74430305    -0.74600
O1520       O  0.90053352  0.98510420  0.68701797    -0.74500
O1521       O  0.55334346  0.12229499  0.72490374    -0.74000
O1522       O  0.87408525  0.43042203  0.72332778    -0.74600
O1523       O  0.54379501  0.06953688  0.74594630    -0.74200
O1524       O  0.96098844  0.06813575  0.69007505    -0.74800
O1525       O  0.60651162  0.02261836  0.69082940    -0.74200
O1526       O  0.92122393  0.40374210  0.68849604    -0.75000
O1527       O  0.58523173  0.08622331  0.68907988    -0.74400
O1528       O  0.00329779  0.41607540  0.68749369    -0.74800
O1529       O  0.57160758  0.44406708  0.72318526    -0.74700
O1530       O  0.52530462  0.45390702  0.74386278    -0.74500
C1531       C  0.88208362  0.44319078  0.73872996     0.77300
C1532       C  0.92084328  0.03256002  0.68271412     0.77700
C1533       C  0.55880441  0.11476529  0.74025609     0.76700
C1534       C  0.61132483  0.06393249  0.68403395     0.77100
C1535       C  0.95640378  0.39458954  0.68206636     0.78200
C1536       C  0.55591173  0.43742943  0.73835939     0.77300
C1537       C  0.83291343  0.17108106  0.15731606     0.45600
H1538       H  0.83261898  0.17077811  0.14346547    -0.03400
C1539       C  0.83307966  0.17150516  0.18976464     0.45600
H1540       H  0.83303998  0.17109494  0.20366647    -0.03400
C1541       C  0.77553337  0.14202137  0.16545258    -0.17100
C1542       C  0.86304346  0.14288400  0.16512556    -0.16900
C1543       C  0.86047904  0.22811467  0.16553089    -0.17300
C1544       C  0.77827778  0.14398074  0.18256943    -0.17200
C1545       C  0.86245233  0.14507917  0.18223442    -0.16800
C1546       C  0.85848492  0.22571305  0.18266964    -0.17100
C1547       C  0.00452731  0.00456436  0.14661058     0.45600
H1548       H  0.00318572  0.00477162  0.16045487    -0.03400
C1549       C  0.00867780  0.00438152  0.11416875     0.45600
H1550       H  0.01020372  0.00410600  0.10027024    -0.03400
C1551       C  0.96937049  0.44297921  0.13878863    -0.17100
C1552       C  0.97655221  0.03393964  0.13807481    -0.16900
C1553       C  0.55827802  0.02328511  0.13875633    -0.17300
C1554       C  0.97092773  0.44322021  0.12169496    -0.17200
C1555       C  0.98001668  0.03256287  0.12095837    -0.16800
C1556       C  0.55827680  0.02192669  0.12159703    -0.17100
Zn1557     Zn  0.70879422  0.30147542  0.92038542     1.49700
Zn1558     Zn  0.70449547  0.41093696  0.92056055     1.49400
Zn1559     Zn  0.59793608  0.30181348  0.91982895     1.49100
Zn1560     Zn  0.67064601  0.34005070  0.94870387     1.49500
O1561       O  0.67053896  0.33806491  0.92557407    -1.84000
O1562       O  0.76964098  0.34967134  0.90616119    -0.74600
O1563       O  0.65809951  0.42341025  0.90493476    -0.74500
O1564       O  0.58669410  0.24118638  0.90503917    -0.73400
O1565       O  0.76871970  0.42582554  0.90724897    -0.74600
O1566       O  0.66301214  0.23962690  0.90568006    -0.74200
O1567       O  0.58238682  0.34911287  0.90549276    -0.74800
O1568       O  0.60898552  0.34353471  0.95719434    -0.74200
O1569       O  0.71931372  0.45521636  0.94205388    -0.75000
O1570       O  0.55442250  0.27783888  0.94136580    -0.74400
O1571       O  0.73306537  0.40075239  0.95727282    -0.74800
O1572       O  0.66955832  0.27860227  0.95850203    -0.74700
O1573       O  0.73212082  0.28061137  0.94203175    -0.74500
C1574       C  0.78778835  0.39709182  0.90175772     0.77300
C1575       C  0.61112039  0.39497931  0.89987070     0.77700
C1576       C  0.61604328  0.22184894  0.90026418     0.76700
C1577       C  0.56580845  0.30209469  0.95538889     0.77100
C1578       C  0.73223100  0.44343010  0.95593555     0.78200
C1579       C  0.70854999  0.27074306  0.95616195     0.77300
Zn1580     Zn  0.79352394  0.20072821  0.05220050     1.49700
Zn1581     Zn  0.80262709  0.09489847  0.05072844     1.49400
Zn1582     Zn  0.83248318  0.16799850  0.02301997     1.49100
Zn1583     Zn  0.90784454  0.20562367  0.05091876     1.49500
O1584       O  0.83435410  0.16737372  0.04600155    -1.84000
O1585       O  0.73666478  0.15195236  0.06734405    -0.74600
O1586       O  0.78649378  0.05212139  0.02897660    -0.74500
O1587       O  0.82958780  0.22922198  0.01512135    -0.74000
O1588       O  0.73924557  0.07687592  0.06513214    -0.74600
O1589       O  0.76307538  0.21781636  0.03127233    -0.74200
O1590       O  0.77191835  0.10656637  0.01394634    -0.74800
O1591       O  0.95061806  0.23307258  0.02924543    -0.74200
O1592       O  0.85262532  0.08447557  0.06518885    -0.75000
O1593       O  0.89469394  0.16951482  0.01305189    -0.74400
O1594       O  0.92755602  0.15961379  0.06444680    -0.74800
O1595       O  0.91711472  0.26347663  0.06641394    -0.74700
O1596       O  0.83956909  0.26279019  0.06659526    -0.74500
C1597       C  0.72010077  0.10459269  0.07145590     0.77300
C1598       C  0.77208038  0.06351999  0.01528985     0.77700
C1599       C  0.78705071  0.23092116  0.01725476     0.76700
C1600       C  0.93841883  0.21017758  0.01500412     0.77100
C1601       C  0.90003756  0.11328989  0.06984154     0.78200
C1602       C  0.88679211  0.28091424  0.07180984     0.77300
C1603       C  0.69300153  0.22722669  0.98362989    -0.26200
C1604       C  0.72871355  0.25579497  0.97089052    -0.14300
C1605       C  0.78324645  0.27816282  0.97405733     0.36400
C1606       C  0.80059781  0.27224819  0.98968321    -0.25600
C1607       C  0.76512390  0.24368661  0.00244763    -0.14900
C1608       C  0.71045548  0.22048562  0.99922525     0.37400
N1609       N  0.67177565  0.18871590  0.01124052    -0.89100
H1610       H  0.65099013  0.21034055  0.98149610     0.18600
H1611       H  0.84268661  0.28973326  0.99176114     0.18600
N1612       N  0.82217651  0.30860884  0.96191445    -0.88200
H1613       H  0.67606071  0.21121359  0.02195282     0.35900
H1614       H  0.67828870  0.15750167  0.01429916     0.41000
H1615       H  0.81663107  0.34014103  0.95856985     0.40600
H1616       H  0.81746574  0.28520107  0.95138056     0.35500
C1617       C  0.77682579  0.99126649  0.99994315    -0.26200
C1618       C  0.76120267  0.03002848  0.00020649    -0.14300
C1619       C  0.74221188  0.04078226  0.98529211     0.36400
C1620       C  0.75374223  0.52853191  0.96952052    -0.25600
C1621       C  0.74144379  0.47621870  0.97107792    -0.14900
C1622       C  0.73411636  0.45447782  0.98725653     0.37400
N1623       N  0.71831173  0.40029208  0.98947428    -0.89100
H1624       H  0.79291475  0.98341446  0.01106670     0.18600
H1625       H  0.75880516  0.54557441  0.95724924     0.18600
N1626       N  0.72569323  0.07996704  0.98487016    -0.88200
H1627       H  0.68260822  0.38329627  0.99600728     0.35900
H1628       H  0.74664358  0.39742924  0.99679083     0.41000
H1629       H  0.68635602  0.06231770  0.98104666     0.40600
H1630       H  0.74836177  0.10752833  0.97592539     0.35500
C1631       C  0.95499682  0.20402762  0.98475019    -0.26200
C1632       C  0.97160790  0.23210378  0.99995489    -0.14300
C1633       C  0.51939184  0.29042969  0.00019905     0.36400
C1634       C  0.54416849  0.31125508  0.98494216    -0.25600
C1635       C  0.53296058  0.27990857  0.97044106    -0.14900
C1636       C  0.98165030  0.22450618  0.96973830     0.37400
N1637       N  0.96397501  0.19397910  0.95470318    -0.89100
H1638       H  0.92086909  0.16563049  0.98439305     0.18600
H1639       H  0.57263439  0.35234552  0.98451871     0.18600
N1640       N  0.53053947  0.32414826  0.01446969    -0.88200
H1641       H  0.92497290  0.18543201  0.95260703     0.35900
H1642       H  0.96449458  0.15880423  0.95657104     0.41000
H1643       H  0.52135592  0.35367860  0.01146800     0.40600
H1644       H  0.57097571  0.34150878  0.01683367     0.35500
C1645       C  0.90261338  0.38966250  0.10157625    -0.26200
C1646       C  0.94672645  0.39698170  0.11073170    -0.14300
C1647       C  0.97042331  0.36516621  0.10750457     0.36400
C1648       C  0.94971016  0.32742308  0.09481964    -0.25600
C1649       C  0.90651762  0.32121461  0.08514383    -0.14900
C1650       C  0.88209889  0.35200182  0.08889847     0.37400
N1651       N  0.83739510  0.34630302  0.07963776    -0.89100
H1652       H  0.88479382  0.41444420  0.10401124     0.18600
H1653       H  0.96804034  0.30306630  0.09244455     0.18600
N1654       N  0.52726476  0.37682438  0.11522020    -0.88200
H1655       H  0.84692478  0.38220702  0.07425007     0.35900
H1656       H  0.80640157  0.33723933  0.08803958     0.41000
H1657       H  0.54208012  0.40895190  0.12327708     0.40600
H1658       H  0.55695796  0.38467691  0.10641022     0.35500
C1659       C  0.99435721  0.09253906  0.09759555    -0.26200
C1660       C  0.95909380  0.05588756  0.10886676    -0.14300
C1661       C  0.90480796  0.03753297  0.10708056     0.36400
C1662       C  0.88658724  0.05643366  0.09412584    -0.25600
C1663       C  0.92175641  0.09320060  0.08275789    -0.14900
C1664       C  0.97637656  0.11163705  0.08456713     0.37400
N1665       N  0.01323689  0.14869354  0.07303934    -0.89100
H1666       H  0.03607272  0.10539526  0.09874561     0.18600
H1667       H  0.84457040  0.04234618  0.09303666     0.18600
N1668       N  0.86803625  0.99871120  0.11808182    -0.88200
H1669       H  0.00632116  0.13048450  0.06130995     0.35900
H1670       H  0.05187770  0.15845776  0.07628339     0.41000
H1671       H  0.84248426  0.96649022  0.11087680     0.40600
H1672       H  0.84570699  0.01394492  0.12389840     0.35500
C1673       C  0.67731282  0.11636710  0.09689161    -0.26200
C1674       C  0.67979640  0.08256517  0.08465923    -0.14300
C1675       C  0.64536800  0.02864827  0.08569997     0.36400
C1676       C  0.60844200  0.00968669  0.09862971    -0.25600
C1677       C  0.60480861  0.04356615  0.11049849    -0.14900
C1678       C  0.63976790  0.09751113  0.10973764     0.37400
N1679       N  0.63664805  0.13296399  0.12175874    -0.89100
H1680       H  0.70457010  0.15776748  0.09637478     0.18600
H1681       H  0.58098785  0.96829399  0.09905487     0.18600
N1682       N  0.64631466  0.99321122  0.07332506    -0.88200
H1683       H  0.60019395  0.13184081  0.12049200     0.35900
H1684       H  0.66545199  0.17131391  0.11942821     0.41000
H1685       H  0.60913285  0.97395193  0.06775503     0.40600
H1686       H  0.65305692  0.96538288  0.07937332     0.35500
C1687       C  0.87497954  0.06235100  0.16142662    -0.26200
C1688       C  0.88843683  0.11356546  0.15632151    -0.14300
C1689       C  0.93253091  0.13881492  0.14569154     0.36400
C1690       C  0.96279835  0.11374789  0.14113523    -0.25600
C1691       C  0.94952622  0.06260666  0.14633693    -0.14900
C1692       C  0.90462749  0.03712936  0.15669299     0.37400
N1693       N  0.88718617  0.98498976  0.16227253    -0.89100
H1694       H  0.84129740  0.04188040  0.16955778     0.18600
H1695       H  0.50050065  0.12942447  0.13377708     0.18600
N1696       N  0.94836124  0.19102938  0.14031393    -0.88200
H1697       H  0.91418960  0.48424515  0.16966529     0.35900
H1698       H  0.87503915  0.45928000  0.15263682     0.41000
H1699       H  0.91884590  0.18945850  0.13247740     0.40600
H1700       H  0.49181242  0.20369022  0.13461878     0.35500
C1701       C  0.94219270  0.31570109  0.16144027    -0.26200
C1702       C  0.88923328  0.28131192  0.15710472    -0.14300
C1703       C  0.86223501  0.30234210  0.14797516     0.36400
C1704       C  0.88790895  0.35618676  0.14374736    -0.25600
C1705       C  0.94122585  0.39059415  0.14782289    -0.14900
C1706       C  0.96834227  0.36918171  0.15695157     0.37400
N1707       N  0.02283061  0.39967037  0.16148420    -0.89100
H1708       H  0.96353632  0.30082705  0.16872289     0.18600
H1709       H  0.86642151  0.37128663  0.13665714     0.18600
N1710       N  0.80792851  0.26954834  0.14367370    -0.88200
H1711       H  0.52706422  0.43253132  0.16935648     0.35900
H1712       H  0.55190091  0.42072472  0.15162039     0.41000
H1713       H  0.80628000  0.24100370  0.13531008     0.40600
H1714       H  0.79304497  0.29087499  0.13736543     0.35500
C1715       C  0.68256778  0.12773537  0.16153547    -0.26200
C1716       C  0.72144269  0.11332366  0.15703586    -0.14300
C1717       C  0.70379117  0.06554371  0.14806508     0.36400
C1718       C  0.64971681  0.03498013  0.14394939    -0.25600
C1719       C  0.61101834  0.04997412  0.14808517    -0.14900
C1720       C  0.62843923  0.09710378  0.15745495     0.37400
N1721       N  0.59330944  0.11678302  0.16248711    -0.89100
H1722       H  0.69438746  0.16322270  0.16877613     0.18600
H1723       H  0.63794448  0.99943786  0.13674394     0.18600
N1724       N  0.73891326  0.04568544  0.14320382    -0.88200
H1725       H  0.59295479  0.11782594  0.17554710     0.35900
H1726       H  0.55480100  0.09192921  0.15880454     0.41000
H1727       H  0.77731581  0.07053956  0.14685366     0.40600
H1728       H  0.73924473  0.04416913  0.13011614     0.35500
C1729       C  0.94200580  0.07453190  0.65528695    -0.26200
C1730       C  0.90316196  0.04578592  0.66717203    -0.14300
C1731       C  0.84967891  0.02714538  0.66315207     0.36400
C1732       C  0.83647706  0.04018763  0.64778748    -0.25600
C1733       C  0.87556038  0.07033243  0.63607880    -0.14900
C1734       C  0.92870569  0.08655432  0.63977981     0.37400
N1735       N  0.96953856  0.11744036  0.62820962    -0.89100
H1736       H  0.98317343  0.08764541  0.65802717     0.18600
H1737       H  0.79543480  0.02798795  0.64517143     0.18600
N1738       N  0.80829367  0.99691338  0.67463457    -0.88200
H1739       H  0.99094147  0.09776563  0.62543337     0.35900
H1740       H  0.99493453  0.15274068  0.63409267     0.41000
H1741       H  0.81534762  0.01786445  0.68585659     0.40600
H1742       H  0.80906672  0.96208569  0.67690918     0.35500
C1743       C  0.95317522  0.30465604  0.64710640    -0.26200
C1744       C  0.92300886  0.31363372  0.63515245    -0.14300
C1745       C  0.90575040  0.35054808  0.63853494     0.36400
C1746       C  0.91604712  0.37503722  0.65424977    -0.25600
C1747       C  0.94429448  0.36437223  0.66643461    -0.14900
C1748       C  0.96440402  0.32992393  0.66260240     0.37400
N1749       N  0.50108609  0.31618868  0.67375343    -0.89100
H1750       H  0.96631006  0.27604565  0.64462840     0.18600
H1751       H  0.90235167  0.40309613  0.65695649     0.18600
N1752       N  0.87543713  0.36088549  0.62643658    -0.88200
H1753       H  0.48042490  0.30446747  0.68503089     0.35900
H1754       H  0.53636201  0.35039945  0.67582644     0.41000
H1755       H  0.90025639  0.37929520  0.61633064     0.40600
H1756       H  0.86383601  0.38736073  0.63125456     0.35500
C1757       C  0.63987380  0.04409919  0.65699320    -0.26200
C1758       C  0.64166484  0.08206450  0.66837923    -0.14300
C1759       C  0.66541103  0.13475386  0.66339878     0.36400
C1760       C  0.68755672  0.14822738  0.64750536    -0.25600
C1761       C  0.68642116  0.11049118  0.63618631    -0.14900
C1762       C  0.66203740  0.05768862  0.64095289     0.37400
N1763       N  0.66131446  0.01834401  0.62978854    -0.89100
H1764       H  0.62037770  0.00340601  0.66053213     0.18600
H1765       H  0.70707484  0.18904056  0.64409233     0.18600
N1766       N  0.66929207  0.17576693  0.67431014    -0.88200
H1767       H  0.64651923  0.48223191  0.63452184     0.35900
H1768       H  0.70015338  0.02541810  0.62829621     0.41000
H1769       H  0.68639580  0.17368651  0.68554337     0.40600
H1770       H  0.63166737  0.17105053  0.67665051     0.35500
C1771       C  0.72343904  0.50769114  0.54241194    -0.26200
C1772       C  0.76602549  0.02488611  0.54984243    -0.14300
C1773       C  0.77493321  0.46747487  0.55215593     0.36400
C1774       C  0.75313635  0.43016775  0.53941495    -0.25600
C1775       C  0.71656439  0.43123863  0.52820697    -0.14900
C1776       C  0.70187032  0.47066923  0.52967571     0.37400
N1777       N  0.66357179  0.47235683  0.51883425    -0.89100
H1778       H  0.70289797  0.04134063  0.54305242     0.18600
H1779       H  0.76353966  0.39921380  0.53860653     0.18600
N1780       N  0.84378996  0.01021986  0.55232351    -0.88200
H1781       H  0.68127268  0.50871785  0.51305996     0.35900
H1782       H  0.63313141  0.47145540  0.52618864     0.41000
H1783       H  0.87167409  0.04805400  0.54902182     0.40600
H1784       H  0.85789782  0.98577008  0.54748056     0.35500
C1785       C  0.52548972  0.23145827  0.52873053    -0.26200
C1786       C  0.55966003  0.28538256  0.52914625    -0.14300
C1787       C  0.55400668  0.31581370  0.54214847     0.36400
C1788       C  0.02268728  0.30342535  0.55526056    -0.25600
C1789       C  0.99191610  0.24918858  0.55557887    -0.14900
C1790       C  0.48691179  0.20761731  0.54107006     0.37400
N1791       N  0.45166036  0.15283689  0.53954245    -0.89100
H1792       H  0.52953934  0.20753754  0.51897040     0.18600
H1793       H  0.01634070  0.32747799  0.56446192     0.18600
N1794       N  0.58518600  0.37122046  0.54313725    -0.88200
H1795       H  0.41302934  0.14703936  0.53934047     0.35900
H1796       H  0.97366462  0.14683711  0.55300024     0.41000
H1797       H  0.58280390  0.38662762  0.53176795     0.40600
H1798       H  0.62416301  0.38099364  0.54569170     0.35500
C1799       C  0.77979779  0.28175656  0.54396125    -0.26200
C1800       C  0.74465779  0.24231092  0.55462864    -0.14300
C1801       C  0.68999691  0.21946557  0.55159464     0.36400
C1802       C  0.67169649  0.23791093  0.53853026    -0.25600
C1803       C  0.70693373  0.27785571  0.52819938    -0.14900
C1804       C  0.76135093  0.29945884  0.53074742     0.37400
N1805       N  0.79790442  0.33992889  0.52015121    -0.89100
H1806       H  0.82195429  0.29877645  0.54574788     0.18600
H1807       H  0.62963759  0.22166755  0.53662080     0.18600
N1808       N  0.65285729  0.17828255  0.56185663    -0.88200
H1809       H  0.82212481  0.32661305  0.51452441     0.35900
H1810       H  0.82185084  0.37217436  0.52761462     0.41000
H1811       H  0.63081434  0.14594124  0.55416061     0.40600
H1812       H  0.62717982  0.19038519  0.56711863     0.35500
C1813       C  0.72655863  0.02409029  0.47558722    -0.26200
C1814       C  0.77986750  0.05744464  0.47980487    -0.14300
C1815       C  0.80717563  0.03446746  0.48762838     0.36400
C1816       C  0.77382151  0.47342248  0.49457793    -0.25600
C1817       C  0.71953846  0.44119550  0.49106108    -0.14900
C1818       C  0.69295395  0.46572928  0.48340776     0.37400
N1819       N  0.63862370  0.43705671  0.47856619    -0.89100
H1820       H  0.70513110  0.04015764  0.46892830     0.18600
H1821       H  0.79529468  0.45648358  0.50073566     0.18600
N1822       N  0.86135053  0.06599348  0.49205985    -0.88200
H1823       H  0.61709951  0.44943462  0.48617385     0.35900
H1824       H  0.62361835  0.39710977  0.48032903     0.41000
H1825       H  0.88310010  0.05010608  0.48625496     0.40600
H1826       H  0.86461603  0.06339185  0.50496839     0.35500
C1827       C  0.53037354  0.23264154  0.48303626    -0.26200
C1828       C  0.54793335  0.28055936  0.49153272    -0.14300
C1829       C  0.50954866  0.29745269  0.49472320     0.36400
C1830       C  0.96391147  0.27097796  0.49065049    -0.25600
C1831       C  0.94700780  0.22213908  0.48289916    -0.14900
C1832       C  0.98539999  0.20538611  0.48045830     0.37400
N1833       N  0.97057250  0.15610428  0.47251728    -0.89100
H1834       H  0.55790841  0.21785309  0.48077092     0.18600
H1835       H  0.93618999  0.28597774  0.49195981     0.18600
N1836       N  0.52358403  0.34747213  0.50209920    -0.88200
H1837       H  0.97871841  0.13334394  0.48075376     0.35900
H1838       H  0.99428217  0.16264147  0.46194451     0.41000
H1839       H  0.56404571  0.36909199  0.50400606     0.40600
H1840       H  0.50492857  0.34121636  0.51372380     0.35500
C1841       C  0.79435793  0.27678737  0.47773180    -0.26200
C1842       C  0.77980979  0.22476172  0.48200098    -0.14300
C1843       C  0.73269994  0.19743303  0.49125408     0.36400
C1844       C  0.70129183  0.22142986  0.49537522    -0.25600
C1845       C  0.71554990  0.27357194  0.49101689    -0.14900
C1846       C  0.76370733  0.30137148  0.48208673     0.37400
N1847       N  0.78389408  0.35494994  0.47745448    -0.89100
H1848       H  0.82996977  0.29862000  0.47049844     0.18600
H1849       H  0.66562109  0.19928343  0.50253835     0.18600
N1850       N  0.71475099  0.14459079  0.49619002    -0.88200
H1851       H  0.81876476  0.37693876  0.48411642     0.35900
H1852       H  0.75829294  0.36919322  0.48080842     0.41000
H1853       H  0.74365664  0.14356071  0.50371158     0.40600
H1854       H  0.71032561  0.12193408  0.48550821     0.35500
C1855       C  0.90003971  0.48955469  0.87424645    -0.26200
C1856       C  0.90342729  0.45464108  0.86275867    -0.14300
C1857       C  0.86859971  0.40053806  0.86414577     0.36400
C1858       C  0.83196232  0.38308654  0.87715592    -0.25600
C1859       C  0.82934976  0.41796153  0.88890736    -0.14900
C1860       C  0.86353322  0.47193148  0.88734960     0.37400
N1861       N  0.86183885  0.50855421  0.89920293    -0.89100
H1862       H  0.92559338  0.02859306  0.87150398     0.18600
H1863       H  0.80541747  0.34160056  0.87810794     0.18600
N1864       N  0.87133396  0.36186573  0.85348311    -0.88200
H1865       H  0.89089679  0.04233321  0.89548772     0.35900
H1866       H  0.87330323  0.50117875  0.91078695     0.41000
H1867       H  0.90352394  0.37794358  0.84541651     0.40600
H1868       H  0.83712914  0.34472628  0.84624732     0.35500
C1869       C  0.53519184  0.39198912  0.88482101    -0.26200
C1870       C  0.58986176  0.41441847  0.88658570    -0.14300
C1871       C  0.62285791  0.45231436  0.87494731     0.36400
C1872       C  0.60047228  0.46770674  0.86213015    -0.25600
C1873       C  0.54579326  0.44586475  0.86070543    -0.14900
C1874       C  0.51309455  0.40759870  0.87212691     0.37400
N1875       N  0.96469822  0.39529698  0.87520209    -0.89100
H1876       H  0.50919091  0.36254829  0.89348362     0.18600
H1877       H  0.63042792  0.98939793  0.85214223     0.18600
N1878       N  0.67898098  0.47487834  0.87592788    -0.88200
H1879       H  0.95493380  0.40596915  0.88668298     0.35900
H1880       H  0.94560000  0.35456965  0.87444549     0.41000
H1881       H  0.69468194  0.51529692  0.87717230     0.40600
H1882       H  0.68754883  0.94514329  0.86181065     0.35500
C1883       C  0.59696775  0.10727398  0.87238383    -0.26200
C1884       C  0.55628650  0.10288217  0.86194625    -0.14300
C1885       C  0.53484616  0.13670312  0.86425389     0.36400
C1886       C  0.55461540  0.17475365  0.87691602    -0.25600
C1887       C  0.59555610  0.17957105  0.88746298    -0.14900
C1888       C  0.61718215  0.14545184  0.88506787     0.37400
N1889       N  0.65878001  0.14891656  0.89563738    -0.89100
H1890       H  0.61244650  0.08016454  0.87074164     0.18600
H1891       H  0.53781776  0.20078363  0.87843236     0.18600
N1892       N  0.99876056  0.13660322  0.85156107    -0.88200
H1893       H  0.67067993  0.12157904  0.89197031     0.35900
H1894       H  0.64345382  0.13890172  0.90770913     0.41000
H1895       H  0.01473388  0.17327542  0.84599942     0.40600
H1896       H  0.96602482  0.13142895  0.85860055     0.35500
C1897       C  0.77115550  0.34722709  0.76523917    -0.26200
C1898       C  0.77053189  0.37998103  0.77813535    -0.14300
C1899       C  0.80551693  0.43395293  0.77764767     0.36400
C1900       C  0.84031805  0.45383257  0.76419139    -0.25600
C1901       C  0.83968769  0.42124361  0.75104560    -0.14900
C1902       C  0.80481243  0.36739745  0.75151633     0.37400
N1903       N  0.80492307  0.33326352  0.73842328    -0.89100
H1904       H  0.74372597  0.30583658  0.76562101     0.18600
H1905       H  0.86797356  0.49517877  0.76386307     0.18600
N1906       N  0.80459718  0.46853395  0.79042914    -0.88200
H1907       H  0.79053082  0.34191666  0.72764055     0.35900
H1908       H  0.77865573  0.29441079  0.74120247     0.41000
H1909       H  0.76812571  0.46768017  0.78993559     0.40600
H1910       H  0.83307889  0.50701018  0.78814343     0.35500
C1911       C  0.56707323  0.36697764  0.77632533    -0.26200
C1912       C  0.62112955  0.38283299  0.77611260    -0.14300
C1913       C  0.65219963  0.41339811  0.76271453     0.36400
C1914       C  0.62926197  0.42780790  0.74995762    -0.25600
C1915       C  0.57582966  0.41348850  0.75042018    -0.14900
C1916       C  0.54407826  0.38245669  0.76367386     0.37400
N1917       N  0.48869948  0.36659857  0.76415272    -0.89100
H1918       H  0.54259787  0.34156481  0.78612585     0.18600
H1919       H  0.65402346  0.45243606  0.74002842     0.18600
N1920       N  0.70764341  0.43118859  0.76218328    -0.88200
H1921       H  0.47119069  0.34436618  0.77477569     0.35900
H1922       H  0.47129888  0.34227262  0.75381763     0.41000
H1923       H  0.72699949  0.47194796  0.76186978     0.40600
H1924       H  0.71629771  0.41755818  0.75108021     0.35500
C1925       C  0.62028314  0.16110937  0.76329594    -0.26200
C1926       C  0.58167073  0.15840749  0.75216751    -0.14300
C1927       C  0.56116362  0.19337763  0.75393445     0.36400
C1928       C  0.58007161  0.23070340  0.76681794    -0.25600
C1929       C  0.61859811  0.23331367  0.77792293    -0.14900
C1930       C  0.63953886  0.19894738  0.77599652     0.37400
N1931       N  0.68146603  0.20355959  0.78650793    -0.89100
H1932       H  0.63583408  0.13396061  0.76201563     0.18600
H1933       H  0.56503754  0.25824933  0.76818269     0.18600
N1934       N  0.51981046  0.18942844  0.74314901    -0.88200
H1935       H  0.71373843  0.21061149  0.77891295     0.35900
H1936       H  0.66922347  0.16775836  0.79236567     0.41000
H1937       H  0.04385822  0.20288822  0.72648754     0.40600
H1938       H  0.01561716  0.22422061  0.74064709     0.35500
C1939       C  0.60232720  0.47105531  0.81658844    -0.26200
C1940       C  0.55168632  0.44197995  0.82332487    -0.14300
C1941       C  0.53235588  0.38754172  0.82507746     0.36400
C1942       C  0.56357912  0.36377295  0.82041097    -0.25600
C1943       C  0.61450089  0.39283121  0.81373269    -0.14900
C1944       C  0.63338081  0.44751638  0.81171771     0.37400
N1945       N  0.68449945  0.48084002  0.80500259    -0.89100
H1946       H  0.62417474  0.01279600  0.81568991     0.18600
H1947       H  0.54706649  0.32188176  0.82148809     0.18600
N1948       N  0.48058776  0.35598879  0.83164271    -0.88200
H1949       H  0.68655597  0.46922949  0.79280600     0.35900
H1950       H  0.71257031  0.47734898  0.81218501     0.41000
H1951       H  0.96318745  0.32912150  0.82694269     0.40600
H1952       H  0.48384023  0.33663115  0.84209986     0.35500
C1953       C  0.85246959  0.46201545  0.83079372    -0.26200
C1954       C  0.89196771  0.44954055  0.82535616    -0.14300
C1955       C  0.87524368  0.40491454  0.81496984     0.36400
C1956       C  0.82096033  0.37444009  0.81060295    -0.25600
C1957       C  0.78121710  0.38701400  0.81594030    -0.14900
C1958       C  0.79823334  0.43139847  0.82671439     0.37400
N1959       N  0.76248667  0.44793830  0.83358005    -0.89100
H1960       H  0.86185407  0.99366506  0.83648734     0.18600
H1961       H  0.80961019  0.34078791  0.80249310     0.18600
N1962       N  0.91299503  0.38914715  0.80942493    -0.88200
H1963       H  0.76419940  0.94137723  0.84572377     0.35900
H1964       H  0.72370328  0.42235828  0.83029092     0.41000
H1965       H  0.93928849  0.41788777  0.80140006     0.40600
H1966       H  0.89458038  0.35472175  0.80235569     0.35500
C1967       C  0.63992464  0.20249982  0.82333543    -0.26200
C1968       C  0.61104224  0.22329304  0.81524811    -0.14300
C1969       C  0.55697899  0.18829438  0.81209056     0.36400
C1970       C  0.53365876  0.13477660  0.81670515    -0.25600
C1971       C  0.56254715  0.11383989  0.82470751    -0.14900
C1972       C  0.61670349  0.14887057  0.82796199     0.37400
N1973       N  0.64820153  0.12973819  0.83608846    -0.89100
H1974       H  0.68158025  0.22775194  0.82542444     0.18600
H1975       H  0.49194003  0.10989480  0.81459693     0.18600
N1976       N  0.52504497  0.20724596  0.80429205    -0.88200
H1977       H  0.68672129  0.15970649  0.83778461     0.35900
H1978       H  0.65036024  0.10214942  0.82812757     0.41000
H1979       H  0.49437670  0.20126772  0.81248946     0.40600
H1980       H  0.50828920  0.18463247  0.79358027     0.35500
C1981       C  0.87718356  0.34317212  0.20862716    -0.26200
C1982       C  0.91161196  0.34328464  0.22089551    -0.14300
C1983       C  0.92980838  0.30648386  0.22020841     0.36400
C1984       C  0.91336454  0.27029370  0.20705982    -0.25600
C1985       C  0.87901634  0.26996682  0.19465344    -0.14900
C1986       C  0.85927992  0.30600138  0.19578902     0.37400
N1987       N  0.81813196  0.30359530  0.18524906    -0.89100
H1988       H  0.86299084  0.37152328  0.20930095     0.18600
H1989       H  0.92653004  0.24128504  0.20673907     0.18600
N1990       N  0.96570925  0.30672875  0.23260943    -0.88200
H1991       H  0.83415018  0.33668403  0.17774100     0.35900
H1992       H  0.80235832  0.27058985  0.17755320     0.41000
H1993       H  0.00100962  0.34149152  0.23138064     0.40600
H1994       H  0.97468563  0.27643514  0.23035355     0.35500
C1995       C  0.95994627  0.13011165  0.20970265    -0.26200
C1996       C  0.92559367  0.08941372  0.22003398    -0.14300
C1997       C  0.87067420  0.06500099  0.21714349     0.36400
C1998       C  0.85173759  0.08293289  0.20416632    -0.25600
C1999       C  0.88611670  0.12332599  0.19378322    -0.14900
C2000       C  0.94084775  0.14749961  0.19665769     0.37400
N2001       N  0.97786499  0.18997019  0.18677540    -0.89100
H2002       H  0.00212049  0.14813089  0.21169741     0.18600
H2003       H  0.80958029  0.06523101  0.20216658     0.18600
N2004       N  0.82807849  0.52881922  0.22870359    -0.88200
H2005       H  0.96684283  0.21918504  0.18643676     0.35900
H2006       H  0.97714952  0.17647784  0.17463224     0.41000
H2007       H  0.84468337  0.51828915  0.23847007     0.40600
H2008       H  0.80843034  0.49567487  0.22112968     0.35500
C2009       C  0.69076796  0.12622016  0.21976406    -0.26200
C2010       C  0.65803284  0.07235457  0.21944515    -0.14300
C2011       C  0.66259587  0.04170022  0.20639114     0.36400
C2012       C  0.70114194  0.06586344  0.19404221    -0.25600
C2013       C  0.73356188  0.11997208  0.19431242    -0.14900
C2014       C  0.72780615  0.15031525  0.20716013     0.37400
N2015       N  0.75898116  0.20585724  0.20729002    -0.89100
H2016       H  0.68602415  0.15001567  0.22943668     0.18600
H2017       H  0.70655554  0.04249136  0.18438401     0.18600
N2018       N  0.63402070  0.49185885  0.20659590    -0.88200
H2019       H  0.73355549  0.22203316  0.20696402     0.35900
H2020       H  0.77979026  0.21717823  0.21854231     0.41000
H2021       H  0.64239275  0.47623029  0.21712024     0.40600
H2022       H  0.64269746  0.47536987  0.19616641     0.35500
C2023       C  0.61426564  0.46465306  0.31188847    -0.26200
C2024       C  0.57058147  0.42798817  0.30277050    -0.14300
C2025       C  0.53766006  0.37904712  0.31000959     0.36400
C2026       C  0.54853178  0.36822255  0.32604912    -0.25600
C2027       C  0.59207323  0.40493094  0.33521329    -0.14900
C2028       C  0.62516770  0.45381391  0.32794013     0.37400
N2029       N  0.67011352  0.49274653  0.33667961    -0.89100
H2030       H  0.63962785  0.50284733  0.30677723     0.18600
H2031       H  0.52303220  0.33006064  0.33115620     0.18600
N2032       N  0.00537671  0.34121359  0.30027731    -0.88200
H2033       H  0.66593403  0.52635000  0.33780163     0.35900
H2034       H  0.70360995  0.50178037  0.32944201     0.41000
H2035       H  0.96925202  0.32410210  0.30656800     0.40600
H2036       H  0.01798742  0.31317806  0.29895275     0.35500
C2037       C  0.61597116  0.16943066  0.30695502    -0.26200
C2038       C  0.56225260  0.13773933  0.30365776    -0.14300
C2039       C  0.52509481  0.13073945  0.31640994     0.36400
C2040       C  0.54245508  0.15612430  0.33179976    -0.25600
C2041       C  0.59619122  0.18815058  0.33505254    -0.14900
C2042       C  0.63334745  0.19461921  0.32235879     0.37400
N2043       N  0.68885087  0.22774782  0.32440996    -0.89100
H2044       H  0.64496928  0.17458558  0.29745958     0.18600
H2045       H  0.51345907  0.15104482  0.34128734     0.18600
N2046       N  0.98226185  0.12865125  0.30990123    -0.88200
H2047       H  0.70212622  0.21378463  0.33421489     0.35900
H2048       H  0.69587721  0.26568296  0.32716775     0.41000
H2049       H  0.96964658  0.08904804  0.30764755     0.40600
H2050       H  0.97549015  0.14551252  0.29940361     0.35500
C2051       C  0.79807502  0.44204022  0.32534750    -0.26200
C2052       C  0.80564109  0.40799004  0.33595050    -0.14300
C2053       C  0.83928386  0.38789086  0.33063375     0.36400
C2054       C  0.86373039  0.40171109  0.31504782    -0.25600
C2055       C  0.85576810  0.43526951  0.30436480    -0.14900
C2056       C  0.82270826  0.45597823  0.30974732     0.37400
N2057       N  0.81210817  0.48996637  0.29957262    -0.89100
H2058       H  0.77155415  0.45703285  0.32898221     0.18600
H2059       H  0.89028789  0.38672959  0.31143961     0.18600
N2060       N  0.85056409  0.35440616  0.34083219    -0.88200
H2061       H  0.79855174  0.47204506  0.28794181     0.35900
H2062       H  0.84687232  0.52497259  0.29796592     0.41000
H2063       H  0.81646017  0.31882802  0.34225898     0.40600
H2064       H  0.86348821  0.37224285  0.35253620     0.35500
C2065       C  0.75288675  0.07238685  0.43189306    -0.26200
C2066       C  0.79145252  0.07399148  0.44281345    -0.14300
C2067       C  0.81492298  0.04181215  0.43976311     0.36400
C2068       C  0.79602059  0.00597164  0.42658470    -0.25600
C2069       C  0.73920388  0.48285120  0.42121310    -0.14900
C2070       C  0.70715201  0.50090003  0.42919248     0.37400
N2071       N  0.65319446  0.48349342  0.42459070    -0.89100
H2072       H  0.73642850  0.09855735  0.43382877     0.18600
H2073       H  0.81206406  0.97941654  0.42463281     0.18600
N2074       N  0.85813282  0.04487431  0.44942023    -0.88200
H2075       H  0.62965319  0.46388180  0.43482568     0.35900
H2076       H  0.64122031  0.45683836  0.41466220     0.41000
H2077       H  0.87198822  0.07596579  0.45787467     0.40600
H2078       H  0.88946919  0.05322579  0.44122532     0.35500
C2079       C  0.49429548  0.28764420  0.42986682    -0.26200
C2080       C  0.49597527  0.25492586  0.41711918    -0.14300
C2081       C  0.97561709  0.20469892  0.41922133     0.36400
C2082       C  0.94129275  0.18514962  0.43282410    -0.25600
C2083       C  0.93873003  0.21865378  0.44512433    -0.14900
C2084       C  0.97097366  0.27284159  0.44386079     0.37400
N2085       N  0.96602878  0.30791736  0.45560643    -0.89100
H2086       H  0.52177623  0.32903736  0.42958228     0.18600
H2087       H  0.91488699  0.14367586  0.43354526     0.18600
N2088       N  0.97795462  0.17003034  0.40672274    -0.88200
H2089       H  0.48022663  0.34059395  0.45262369     0.35900
H2090       H  0.92846103  0.30428099  0.45427824     0.41000
H2091       H  0.96463359  0.17754817  0.39550686     0.40600
H2092       H  0.95191599  0.13124738  0.40965857     0.35500
C2093       C  0.81792653  0.25210205  0.43183483    -0.26200
C2094       C  0.78593358  0.21849396  0.44438518    -0.14300
C2095       C  0.73098652  0.19831978  0.44357571     0.36400
C2096       C  0.70936893  0.21463996  0.43087242    -0.25600
C2097       C  0.74148607  0.24831987  0.41837919    -0.14900
C2098       C  0.79606287  0.26656897  0.41872457     0.37400
N2099       N  0.82946818  0.30074805  0.40603395    -0.89100
H2100       H  0.86008385  0.26625273  0.43200501     0.18600
H2101       H  0.66716441  0.20029228  0.43060372     0.18600
N2102       N  0.69688152  0.15954593  0.45507405    -0.88200
H2103       H  0.84969890  0.28303782  0.40034362     0.35900
H2104       H  0.85718727  0.33523504  0.41180831     0.41000
H2105       H  0.67203498  0.12604262  0.44824812     0.40600
H2106       H  0.67337178  0.17333942  0.46092286     0.35500
Zn2107     Zn  0.70639287  0.91170285  0.37064108     1.49700
Zn2108     Zn  0.71413224  0.80570423  0.37134797     1.49400
Zn2109     Zn  0.67614846  0.84420265  0.40270690     1.49100
Zn2110     Zn  0.60142897  0.80320011  0.37159899     1.49500
O2111       O  0.67450914  0.84082912  0.37886567    -1.84000
O2112       O  0.76483235  0.92394437  0.35533243    -0.74600
O2113       O  0.74012900  0.77948828  0.39088487    -0.74500
O2114       O  0.71350290  0.91541830  0.41080700    -0.74000
O2115       O  0.77341579  0.85237005  0.35623425    -0.74600
O2116       O  0.73196926  0.96666552  0.38874191    -0.74200
O2117       O  0.71376820  0.81018793  0.41235886    -0.74800
O2118       O  0.55090239  0.77717139  0.39124845    -0.74200
O2119       O  0.66984474  0.74832665  0.35528471    -0.75000
O2120       O  0.60527938  0.81178107  0.41277889    -0.74400
O2121       O  0.59169588  0.74500435  0.35634716    -0.74800
O2122       O  0.58438552  0.84581881  0.35560147    -0.74700
O2123       O  0.65883876  0.92034336  0.35496350    -0.74500
C2124       C  0.78553833  0.89666703  0.35006832     0.77300
C2125       C  0.73705931  0.78610762  0.40657800     0.77700
C2126       C  0.73293935  0.96011165  0.40437643     0.76700
C2127       C  0.55929294  0.78506485  0.40690865     0.77100
C2128       C  0.62314605  0.73073642  0.34984331     0.78200
C2129       C  0.61323843  0.89043681  0.34927814     0.77300
Zn2130     Zn  0.57314557  0.53695562  0.26637516     1.49700
Zn2131     Zn  0.96239089  0.54139725  0.26767225     1.49400
Zn2132     Zn  0.49825927  0.99717533  0.23450945     1.49100
Zn2133     Zn  0.97434903  0.93711479  0.26599294     1.49500
O2134       O  0.49698113  0.99815140  0.25826427    -1.84000
O2135       O  0.58466363  0.59485238  0.28201642    -0.74600
O2136       O  0.93674160  0.57004712  0.24896564    -0.74500
O2137       O  0.57270290  0.53277558  0.22540547    -0.74000
O2138       O  0.51035328  0.59940558  0.28150556    -0.74600
O2139       O  0.62588252  0.56200309  0.24740776    -0.74200
O2140       O  0.96613185  0.54440110  0.22691719    -0.74800
O2141       O  0.94826952  0.88606180  0.24670186    -0.74200
O2142       O  0.91563731  0.00127020  0.28264723    -0.75000
O2143       O  0.96722287  0.94040416  0.22543506    -0.74400
O2144       O  0.91667978  0.92558567  0.28185810    -0.74800
O2145       O  0.50933807  0.91361559  0.28058999    -0.74700
O2146       O  0.58372954  0.98853783  0.28065160    -0.74500
C2147       C  0.55560465  0.61329546  0.28765562     0.77300
C2148       C  0.94284009  0.56779075  0.23324192     0.77700
C2149       C  0.61836951  0.55560995  0.23169633     0.76700
C2150       C  0.94750657  0.89478512  0.23119409     0.77100
C2151       C  0.90055979  0.95567463  0.28814892     0.78200
C2152       C  0.55519470  0.94287086  0.28628179     0.77300
C2153       C  0.66714566  0.82916559  0.81392603     0.45600
H2154       H  0.66563056  0.82906788  0.82777264    -0.03400
C2155       C  0.66895786  0.82757415  0.78155064     0.45600
H2156       H  0.66976460  0.82656298  0.76766353    -0.03400
C2157       C  0.64166879  0.86113575  0.80547497    -0.17100
C2158       C  0.72535106  0.85435859  0.80627207    -0.16900
C2159       C  0.63619271  0.77195002  0.80593333    -0.17300
C2160       C  0.64353346  0.85870383  0.78833903    -0.17200
C2161       C  0.72322075  0.85158368  0.78912625    -0.16800
C2162       C  0.63876150  0.77385605  0.78881767    -0.17100
C2163       C  0.00399534  0.50261533  0.82610606     0.45600
H2164       H  0.00454113  0.50316872  0.81225692    -0.03400
C2165       C  0.00356380  0.50166234  0.85856477     0.45600
H2166       H  0.49583290  0.49733327  0.87079132    -0.03400
C2167       C  0.52626418  0.55673582  0.83301711    -0.17100
C2168       C  0.94440441  0.97493893  0.83149691    -0.16900
C2169       C  0.53179696  0.97248750  0.83316517    -0.17300
C2170       C  0.52399424  0.55303437  0.85012131    -0.17200
C2171       C  0.94648504  0.97583335  0.84864068    -0.16800
C2172       C  0.53004480  0.97373024  0.85033344    -0.17100
C2173       C  0.67279437  0.84781437  0.52373564     0.45600
H2174       H  0.67398753  0.85154361  0.53749457    -0.03400
C2175       C  0.66882177  0.83757413  0.49140325     0.45600
H2176       H  0.66722150  0.83323719  0.47759922    -0.03400
C2177       C  0.69884691  0.81594573  0.51744144    -0.17100
C2178       C  0.61667058  0.81969887  0.51726506    -0.16900
C2179       C  0.69946463  0.89993806  0.51467251    -0.17300
C2180       C  0.69856924  0.81044380  0.50026253    -0.17200
C2181       C  0.61239534  0.81354293  0.50015208    -0.16800
C2182       C  0.69887410  0.89658634  0.49764176    -0.17100
C2183       C  0.83032441  0.65667210  0.44940251     0.45600
H2184       H  0.82979560  0.65390294  0.43554504    -0.03400
C2185       C  0.83159103  0.66273683  0.48184124     0.45600
H2186       H  0.83188599  0.66517081  0.49568401    -0.03400
C2187       C  0.80434851  0.60378172  0.45767177    -0.17100
C2188       C  0.88569567  0.68540534  0.45642439    -0.16900
C2189       C  0.80240952  0.68613825  0.45597805    -0.17300
C2190       C  0.80293950  0.60448546  0.47472448    -0.17200
C2191       C  0.88892844  0.68880942  0.47359356    -0.16800
C2192       C  0.80178651  0.69030927  0.47315504    -0.17100
Zn2193     Zn  0.75927949  0.62491113  0.58566284     1.49700
Zn2194     Zn  0.86565589  0.73310769  0.58561661     1.49400
Zn2195     Zn  0.83154599  0.66222636  0.61384960     1.49100
Zn2196     Zn  0.87178257  0.62585910  0.58611957     1.49500
O2197       O  0.83215714  0.66169347  0.59096868    -1.84000
O2198       O  0.74160437  0.66899597  0.57052195    -0.74600
O2199       O  0.89116235  0.77906851  0.60673627    -0.74500
O2200       O  0.77136903  0.66789068  0.62266389    -0.74000
O2201       O  0.81530222  0.74540434  0.57164214    -0.74600
O2202       O  0.71455808  0.60276424  0.60699183    -0.74200
O2203       O  0.89523369  0.72043571  0.62295397    -0.74800
O2204       O  0.89534287  0.60615248  0.60760401    -0.74200
O2205       O  0.92623097  0.74480805  0.57097252    -0.75000
O2206       O  0.82675080  0.59767685  0.62224173    -0.74400
O2207       O  0.93270945  0.67174054  0.57182897    -0.74800
O2208       O  0.82674399  0.56373798  0.57196603    -0.74700
O2209       O  0.74989015  0.56473993  0.57191937    -0.74500
C2210       C  0.76890831  0.71628066  0.56605472     0.77300
C2211       C  0.90499836  0.76693933  0.62040608     0.77700
C2212       C  0.72648938  0.62870751  0.62068880     0.76700
C2213       C  0.86762907  0.59246973  0.62089879     0.77100
C2214       C  0.94793832  0.71749631  0.56638167     0.78200
C2215       C  0.77950919  0.54609030  0.56693155     0.77300
Zn2216     Zn  0.49939200  0.49898212  0.73447590     1.49700
Zn2217     Zn  0.92249708  0.94694979  0.70314413     1.49400
Zn2218     Zn  0.52713617  0.57017522  0.70371216     1.49100
Zn2219     Zn  0.54670276  0.97086526  0.70466655     1.49500
O2220       O  0.50092119  0.49896364  0.71086311    -1.84000
O2221       O  0.92463784  0.96438072  0.74352291    -0.74600
O2222       O  0.90681923  0.50021101  0.68871105    -0.74500
O2223       O  0.55364986  0.62195891  0.72291212    -0.74000
O2224       O  0.87165664  0.91851369  0.72264060    -0.74600
O2225       O  0.54213514  0.56867639  0.74394867    -0.74200
O2226       O  0.97312944  0.58100629  0.69014210    -0.74800
O2227       O  0.60558690  0.52303897  0.68920153    -0.74200
O2228       O  0.92160856  0.89195947  0.68786075    -0.75000
O2229       O  0.58392106  0.58629025  0.68702492    -0.74400
O2230       O  0.00615488  0.91190510  0.68629262    -0.74800
O2231       O  0.56877899  0.93983789  0.72359779    -0.74700
O2232       O  0.52888340  0.95553391  0.74500291    -0.74500
C2233       C  0.87956928  0.93252127  0.73797649     0.77300
C2234       C  0.93023193  0.54690023  0.68362801     0.77700
C2235       C  0.55852822  0.61414221  0.73826671     0.76700
C2236       C  0.61046729  0.56419293  0.68224099     0.77100
C2237       C  0.95899151  0.88693462  0.68111604     0.78200
C2238       C  0.55571827  0.93548500  0.73899367     0.77300
C2239       C  0.83546950  0.67465139  0.15745460     0.45600
H2240       H  0.83432663  0.67347267  0.14361700    -0.03400
C2241       C  0.83766534  0.67727543  0.18990058     0.45600
H2242       H  0.83874477  0.67821586  0.20380316    -0.03400
C2243       C  0.77864942  0.64803642  0.16595935    -0.17100
C2244       C  0.86419682  0.64512804  0.16531368    -0.16900
C2245       C  0.86530160  0.73215418  0.16520820    -0.17300
C2246       C  0.78234334  0.65065357  0.18306520    -0.17200
C2247       C  0.86466611  0.64836381  0.18244107    -0.16800
C2248       C  0.86432860  0.73084361  0.18233537    -0.17100
C2249       C  0.99817802  0.50080915  0.14614422     0.45600
H2250       H  0.99854947  0.50284670  0.15998488    -0.03400
C2251       C  0.99839480  0.49633207  0.11367953     0.45600
H2252       H  0.99833220  0.49408243  0.09978713    -0.03400
C2253       C  0.97704189  0.94755341  0.13842745    -0.17100
C2254       C  0.96973312  0.52954813  0.13750024    -0.16900
C2255       C  0.56155633  0.53124073  0.13923267    -0.17300
C2256       C  0.98056361  0.95006055  0.12133222    -0.17200
C2257       C  0.97101625  0.52596794  0.12035427    -0.16800
C2258       C  0.56116057  0.53027072  0.12208621    -0.17100
Zn2259     Zn  0.70950042  0.79682533  0.91874622     1.49700
Zn2260     Zn  0.70817489  0.90676147  0.92035516     1.49400
Zn2261     Zn  0.59916471  0.79908468  0.91963554     1.49100
Zn2262     Zn  0.67192306  0.83291413  0.94810586     1.49500
O2263       O  0.67225776  0.83400118  0.92497958    -1.84000
O2264       O  0.76841678  0.84427178  0.90354631    -0.74600
O2265       O  0.66248780  0.92168566  0.90531655    -0.74500
O2266       O  0.58554512  0.73859933  0.90467388    -0.73400
O2267       O  0.77084500  0.92153568  0.90645104    -0.74600
O2268       O  0.66010391  0.73345508  0.90493636    -0.74200
O2269       O  0.58550502  0.84834492  0.90573461    -0.74800
O2270       O  0.61041574  0.83416976  0.95779937    -0.74200
O2271       O  0.72724104  0.95018452  0.94191811    -0.75000
O2272       O  0.55450205  0.77294181  0.94100929    -0.74400
O2273       O  0.73369838  0.89237490  0.95785932    -0.74800
O2274       O  0.66981232  0.76880755  0.95559847    -0.74700
O2275       O  0.73729483  0.77910996  0.94011674    -0.74500
C2276       C  0.78783950  0.89244344  0.89987923     0.77300
C2277       C  0.61530089  0.89425356  0.90030468     0.77700
C2278       C  0.61286052  0.71709175  0.89989499     0.76700
C2279       C  0.56612343  0.79453365  0.95544092     0.77100
C2280       C  0.73927264  0.93769511  0.95583963     0.78200
C2281       C  0.71235038  0.76684531  0.95399793     0.77300
Zn2282     Zn  0.79722842  0.70993571  0.05185488     1.49700
Zn2283     Zn  0.79996806  0.60075429  0.05032258     1.49400
Zn2284     Zn  0.83256572  0.67418281  0.02251021     1.49100
Zn2285     Zn  0.90864266  0.70763328  0.05042136     1.49500
O2286       O  0.83522831  0.67331948  0.04560728    -1.84000
O2287       O  0.73927786  0.66327525  0.06742540    -0.74600
O2288       O  0.78066278  0.55832662  0.02851912    -0.74500
O2289       O  0.83474793  0.73840211  0.01504556    -0.74000
O2290       O  0.73800266  0.58653437  0.06465996    -0.74600
O2291       O  0.76763777  0.72747181  0.03074710    -0.74200
O2292       O  0.76819322  0.61521401  0.01405296    -0.74800
O2293       O  0.95068190  0.73114418  0.02837550    -0.74200
O2294       O  0.84695799  0.58559506  0.06485136    -0.75000
O2295       O  0.89190507  0.67121373  0.01166827    -0.74400
O2296       O  0.92391272  0.65868401  0.06438548    -0.74800
O2297       O  0.92216069  0.76877887  0.06530325    -0.74700
O2298       O  0.84686430  0.77274487  0.06553248    -0.74500
C2299       C  0.72068295  0.61536838  0.07127142     0.77300
C2300       C  0.76677051  0.57134694  0.01503495     0.77700
C2301       C  0.79219820  0.74022942  0.01681438     0.76700
C2302       C  0.93716889  0.70957508  0.01394434     0.77100
C2303       C  0.89451826  0.61244695  0.06965463     0.78200
C2304       C  0.89424486  0.78937375  0.07044679     0.77300
C2305       C  0.69845928  0.72802251  0.98207668    -0.26200
C2306       C  0.73402690  0.75645002  0.96929585    -0.14300
C2307       C  0.78846838  0.78281456  0.97289389     0.36400
C2308       C  0.80576523  0.77988819  0.98889492    -0.25600
C2309       C  0.77026422  0.75116913  0.00165128    -0.14900
C2310       C  0.71576918  0.72507499  0.99808486     0.37400
N2311       N  0.67708704  0.69405057  0.01020697    -0.89100
H2312       H  0.65645083  0.70831561  0.97967195     0.18600
H2313       H  0.84777436  0.79969386  0.99129605     0.18600
N2314       N  0.82713614  0.81410065  0.96080332    -0.88200
H2315       H  0.67981150  0.71779292  0.02043409     0.35900
H2316       H  0.68492021  0.66433596  0.01409662     0.41000
H2317       H  0.81899203  0.84361381  0.95688749     0.40600
H2318       H  0.82483087  0.79049016  0.95059350     0.35500
C2319       C  0.74101513  0.48571642  0.00139711    -0.26200
C2320       C  0.75420868  0.53823052  0.99986070    -0.14300
C2321       C  0.76042524  0.55975421  0.98368658     0.36400
C2322       C  0.73884935  0.01254884  0.97067423    -0.25600
C2323       C  0.75347477  0.97312241  0.97050911    -0.14900
C2324       C  0.77341761  0.96302695  0.98530132     0.37400
N2325       N  0.79051215  0.92426432  0.98555464    -0.89100
H2326       H  0.73602278  0.46863418  0.01366153     0.18600
H2327       H  0.72272124  0.02036380  0.95955075     0.18600
N2328       N  0.77521195  0.61372471  0.98150558    -0.88200
H2329       H  0.76846866  0.89667410  0.99457155     0.35900
H2330       H  0.83001820  0.94233006  0.98920932     0.41000
H2331       H  0.74626913  0.61598143  0.97433354     0.40600
H2332       H  0.81065331  0.63125123  0.97484524     0.35500
C2333       C  0.96320429  0.69977273  0.98491829    -0.26200
C2334       C  0.97079302  0.73183152  0.99904605    -0.14300
C2335       C  0.52396219  0.76956851  0.00082163     0.36400
C2336       C  0.55181816  0.79236612  0.98616641    -0.25600
C2337       C  0.53161818  0.77149014  0.97022818    -0.14900
C2338       C  0.98931147  0.72061311  0.96979205     0.37400
N2339       N  0.98308129  0.68638213  0.95600436    -0.89100
H2340       H  0.93699885  0.65815402  0.98562424     0.18600
H2341       H  0.59012249  0.82648293  0.98741017     0.18600
N2342       N  0.54634715  0.79230106  0.01667565    -0.88200
H2343       H  0.94305193  0.66589416  0.95301507     0.35900
H2344       H  0.99489200  0.65942057  0.95986757     0.41000
H2345       H  0.55324502  0.83090423  0.01684703     0.40600
H2346       H  0.58265791  0.79280350  0.01771583     0.35500
C2347       C  0.91497872  0.90098925  0.09979010    -0.26200
C2348       C  0.95700361  0.90546537  0.10955050    -0.14300
C2349       C  0.97969954  0.87282823  0.10613001     0.36400
C2350       C  0.95889841  0.83593730  0.09315234    -0.25600
C2351       C  0.91657172  0.83128443  0.08332258    -0.14900
C2352       C  0.89453799  0.86437845  0.08677671     0.37400
N2353       N  0.85215187  0.86186144  0.07693786    -0.89100
H2354       H  0.89851217  0.92696252  0.10209908     0.18600
H2355       H  0.97603097  0.81051136  0.09082533     0.18600
N2356       N  0.50985403  0.86086226  0.11698584    -0.88200
H2357       H  0.86439799  0.89852918  0.07169359     0.35900
H2358       H  0.82047705  0.85401111  0.08492343     0.41000
H2359       H  0.52653595  0.89352681  0.12479051     0.40600
H2360       H  0.54026735  0.86451203  0.10901921     0.35500
C2361       C  0.98589549  0.58473150  0.09653301    -0.26200
C2362       C  0.95057332  0.54969802  0.10815931    -0.14300
C2363       C  0.89657308  0.53368663  0.10670492     0.36400
C2364       C  0.87898267  0.55405800  0.09391213    -0.25600
C2365       C  0.91460371  0.59011941  0.08243311    -0.14900
C2366       C  0.96859594  0.60545007  0.08384459     0.37400
N2367       N  0.00589324  0.64089850  0.07216769    -0.89100
H2368       H  0.02720982  0.59546387  0.09708123     0.18600
H2369       H  0.83727222  0.54182786  0.09305035     0.18600
N2370       N  0.85946122  0.49568493  0.11784074    -0.88200
H2371       H  0.02493907  0.62221085  0.06633482     0.35900
H2372       H  0.03409157  0.67296918  0.07886151     0.41000
H2373       H  0.83273108  0.46390407  0.11070751     0.40600
H2374       H  0.83859284  0.51217028  0.12386771     0.35500
C2375       C  0.67632352  0.62704910  0.09649873    -0.26200
C2376       C  0.68021623  0.59336496  0.08448465    -0.14300
C2377       C  0.64786774  0.53906902  0.08600259     0.36400
C2378       C  0.61200760  0.51971291  0.09915272    -0.25600
C2379       C  0.60722325  0.55322089  0.11085517    -0.14900
C2380       C  0.63983273  0.60748886  0.10966871     0.37400
N2381       N  0.63546539  0.64241381  0.12162929    -0.89100
H2382       H  0.70185765  0.66873740  0.09564631     0.18600
H2383       H  0.58617177  0.47807739  0.09987029     0.18600
N2384       N  0.65005683  0.50332886  0.07398592    -0.88200
H2385       H  0.59795781  0.63911719  0.12056901     0.35900
H2386       H  0.66250094  0.68109727  0.11897576     0.41000
H2387       H  0.61266413  0.48187297  0.06869555     0.40600
H2388       H  0.65904348  0.47739323  0.08029912     0.35500
C2389       C  0.87337334  0.56304221  0.16180946    -0.26200
C2390       C  0.88758467  0.61417475  0.15644582    -0.14300
C2391       C  0.93069877  0.63785231  0.14534874     0.36400
C2392       C  0.95884519  0.61099650  0.14036540    -0.25600
C2393       C  0.94475334  0.55994019  0.14581681    -0.14900
C2394       C  0.90127519  0.53630945  0.15681475     0.37400
N2395       N  0.88364141  0.48462360  0.16286770    -0.89100
H2396       H  0.84060955  0.54387712  0.17036832     0.18600
H2397       H  0.49738969  0.63068323  0.13436809     0.18600
N2398       N  0.94790545  0.69032361  0.13996285    -0.88200
H2399       H  0.91715631  0.98455735  0.16937871     0.35900
H2400       H  0.88041065  0.96080405  0.15182064     0.41000
H2401       H  0.91837263  0.68979547  0.13237636     0.40600
H2402       H  0.48491312  0.70273135  0.13476489     0.35500
C2403       C  0.94782893  0.81901562  0.16082267    -0.26200
C2404       C  0.89479999  0.78490652  0.15645701    -0.14300
C2405       C  0.86861841  0.80609712  0.14697573     0.36400
C2406       C  0.89516441  0.85977067  0.14242257    -0.25600
C2407       C  0.94821939  0.89410023  0.14686405    -0.14900
C2408       C  0.97451356  0.87245210  0.15629902     0.37400
N2409       N  0.02871178  0.90269492  0.16117956    -0.89100
H2410       H  0.96872493  0.80405275  0.16828707     0.18600
H2411       H  0.87435543  0.87493270  0.13501892     0.18600
N2412       N  0.81433866  0.77366705  0.14258078    -0.88200
H2413       H  0.51617452  0.92971757  0.17020451     0.35900
H2414       H  0.54352683  0.91617764  0.15334862     0.41000
H2415       H  0.81250620  0.74449432  0.13445788     0.40600
H2416       H  0.80013878  0.79501325  0.13595838     0.35500
C2417       C  0.68546366  0.63443550  0.16249924    -0.26200
C2418       C  0.72427784  0.62016756  0.15779608    -0.14300
C2419       C  0.70696074  0.57331744  0.14850351     0.36400
C2420       C  0.65322774  0.54311995  0.14407574    -0.25600
C2421       C  0.61443504  0.55788227  0.14840623    -0.14900
C2422       C  0.63153013  0.60437054  0.15808916     0.37400
N2423       N  0.59621931  0.62382127  0.16314440    -0.89100
H2424       H  0.69718436  0.66938032  0.17001946     0.18600
H2425       H  0.64179831  0.50815260  0.13659654     0.18600
N2426       N  0.74286503  0.55463631  0.14367683    -0.88200
H2427       H  0.59482707  0.62354767  0.17621087     0.35900
H2428       H  0.55799465  0.59961535  0.15906490     0.41000
H2429       H  0.76023267  0.54981079  0.15445052     0.40600
H2430       H  0.77235195  0.58285563  0.13626081     0.35500
C2431       C  0.95075237  0.59376938  0.65697443    -0.26200
C2432       C  0.91201656  0.55963707  0.66808743    -0.14300
C2433       C  0.85885531  0.53322484  0.66284346     0.36400
C2434       C  0.84583321  0.54206749  0.64690264    -0.25600
C2435       C  0.88462086  0.57604686  0.63584362    -0.14900
C2436       C  0.93757546  0.60198376  0.64092797     0.37400
N2437       N  0.97778961  0.63834639  0.63014186    -0.89100
H2438       H  0.99188061  0.61346705  0.66058976     0.18600
H2439       H  0.80474784  0.52298026  0.64323093     0.18600
N2440       N  0.81701496  0.49859861  0.67350893    -0.88200
H2441       H  0.00612266  0.62606161  0.62841450     0.35900
H2442       H  0.99583909  0.67468741  0.63618323     0.41000
H2443       H  0.81903135  0.51797457  0.68477211     0.40600
H2444       H  0.82140201  0.46573075  0.67583252     0.35500
C2445       C  0.95255315  0.79203691  0.64742603    -0.26200
C2446       C  0.92773352  0.80442368  0.63445287    -0.14300
C2447       C  0.91660366  0.84626762  0.63671615     0.36400
C2448       C  0.92626621  0.87149176  0.65232531    -0.25600
C2449       C  0.94850166  0.85713440  0.66545203    -0.14900
C2450       C  0.96354280  0.81833390  0.66277460     0.37400
N2451       N  0.52060727  0.83918611  0.66949819    -0.89100
H2452       H  0.96182309  0.76032651  0.64585729     0.18600
H2453       H  0.91678819  0.90295816  0.65425118     0.18600
N2454       N  0.89363541  0.86165748  0.62350216    -0.88200
H2455       H  0.50590058  0.82393360  0.68128209     0.35900
H2456       H  0.55152743  0.87715912  0.67081790     0.41000
H2457       H  0.92176288  0.87717919  0.61398643     0.40600
H2458       H  0.88617411  0.89176651  0.62750823     0.35500
C2459       C  0.64205207  0.54473105  0.65576363    -0.26200
C2460       C  0.64224611  0.58260417  0.66684802    -0.14300
C2461       C  0.66714103  0.63545444  0.66193308     0.36400
C2462       C  0.69195512  0.64910753  0.64639015    -0.25600
C2463       C  0.69162083  0.61122190  0.63533822    -0.14900
C2464       C  0.66654985  0.55842703  0.64007670     0.37400
N2465       N  0.66769177  0.51920863  0.62926373    -0.89100
H2466       H  0.62208763  0.50401384  0.65926826     0.18600
H2467       H  0.71245223  0.68993012  0.64299753     0.18600
N2468       N  0.66934482  0.67633184  0.67256198    -0.88200
H2469       H  0.64062216  0.98138171  0.63510068     0.35900
H2470       H  0.70680205  0.52661941  0.62840208     0.41000
H2471       H  0.68477024  0.67418780  0.68412035     0.40600
H2472       H  0.63133211  0.67132498  0.67424477     0.35500
C2473       C  0.72243185  0.01828330  0.54032212    -0.26200
C2474       C  0.75903048  0.50590989  0.55386406    -0.14300
C2475       C  0.79495258  0.99951806  0.54450060     0.36400
C2476       C  0.77466167  0.96242664  0.53159064    -0.25600
C2477       C  0.72612337  0.94931131  0.52434746    -0.14900
C2478       C  0.70302105  0.98146902  0.52731995     0.37400
N2479       N  0.66144254  0.97826260  0.51692122    -0.89100
H2480       H  0.71179913  0.53790733  0.54338876     0.18600
H2481       H  0.79620940  0.94266358  0.52731819     0.18600
N2482       N  0.81160016  0.46507875  0.56359396    -0.88200
H2483       H  0.67612564  0.01335885  0.51044022     0.35900
H2484       H  0.63138206  0.97687379  0.52457728     0.41000
H2485       H  0.84365428  0.46766279  0.55670676     0.40600
H2486       H  0.79332014  0.42862803  0.56932468     0.35500
C2487       C  0.54004963  0.74164566  0.52930761    -0.26200
C2488       C  0.57238497  0.79595056  0.52948334    -0.14300
C2489       C  0.56501955  0.82583275  0.54232057     0.36400
C2490       C  0.02035138  0.79431460  0.55365985    -0.25600
C2491       C  0.99115397  0.74001357  0.55416249    -0.14900
C2492       C  0.50108386  0.71708522  0.54149460     0.37400
N2493       N  0.46777035  0.66187475  0.54009102    -0.89100
H2494       H  0.54551634  0.71802739  0.51974616     0.18600
H2495       H  0.01302184  0.81821895  0.56266308     0.18600
N2496       N  0.59350182  0.88143187  0.54296789    -0.88200
H2497       H  0.42859594  0.65434243  0.53949416     0.35900
H2498       H  0.98032540  0.64009710  0.55317983     0.41000
H2499       H  0.58907639  0.89500270  0.53150340     0.40600
H2500       H  0.63316666  0.89395125  0.54532431     0.35500
C2501       C  0.76056232  0.79094400  0.55600384    -0.26200
C2502       C  0.74741118  0.73874465  0.55393195    -0.14300
C2503       C  0.71802027  0.71106970  0.53980909     0.36400
C2504       C  0.70276960  0.73668460  0.52799762    -0.25600
C2505       C  0.71764560  0.79002158  0.52977795    -0.14900
C2506       C  0.74615648  0.81660018  0.54426083     0.37400
N2507       N  0.76178603  0.87019726  0.54726463    -0.89100
H2508       H  0.78291446  0.81255828  0.56686059     0.18600
H2509       H  0.67871212  0.71446958  0.51754054     0.18600
N2510       N  0.70496749  0.65762355  0.53714112    -0.88200
H2511       H  0.80272230  0.88995147  0.54865647     0.35900
H2512       H  0.74514611  0.87337981  0.55858054     0.41000
H2513       H  0.72108695  0.65478819  0.52568130     0.40600
H2514       H  0.66400431  0.63567191  0.53624613     0.35500
C2515       C  0.71953539  0.52035199  0.48065186    -0.26200
C2516       C  0.77390928  0.55220657  0.48372496    -0.14300
C2517       C  0.80094238  0.52756158  0.49071602     0.36400
C2518       C  0.78152678  0.98023543  0.49105087    -0.25600
C2519       C  0.72734573  0.94721439  0.48774860    -0.14900
C2520       C  0.70006592  0.97019149  0.47956422     0.37400
N2521       N  0.64536096  0.94049452  0.47524110    -0.89100
H2522       H  0.69749917  0.53793706  0.47535090     0.18600
H2523       H  0.80362735  0.96423704  0.49732876     0.18600
N2524       N  0.85627031  0.55730875  0.49381348    -0.88200
H2525       H  0.62455166  0.95480848  0.48240702     0.35900
H2526       H  0.63043340  0.90121820  0.47815091     0.41000
H2527       H  0.87519219  0.53989593  0.48717223     0.40600
H2528       H  0.86255845  0.55495544  0.50654517     0.35500
C2529       C  0.54132859  0.73861040  0.48329762    -0.26200
C2530       C  0.55789426  0.78619854  0.49190859    -0.14300
C2531       C  0.51865513  0.80195433  0.49513227     0.36400
C2532       C  0.96047824  0.76364617  0.49044029    -0.25600
C2533       C  0.94303550  0.71541580  0.48222871    -0.14900
C2534       C  0.98142674  0.69878198  0.47930789     0.37400
N2535       N  0.96604856  0.64963431  0.47120078    -0.89100
H2536       H  0.56959120  0.72486571  0.48085798     0.18600
H2537       H  0.93283880  0.77850107  0.49230917     0.18600
N2538       N  0.53179577  0.85220895  0.50212846    -0.88200
H2539       H  0.97445530  0.62658655  0.47923377     0.35900
H2540       H  0.98915378  0.65630394  0.46047378     0.41000
H2541       H  0.57236362  0.87518666  0.50359568     0.40600
H2542       H  0.51393417  0.84647265  0.51386068     0.35500
C2543       C  0.80339145  0.76657304  0.48956446    -0.26200
C2544       C  0.77372602  0.71801272  0.48153302    -0.14300
C2545       C  0.71928713  0.70208174  0.47867103     0.36400
C2546       C  0.69700427  0.73437133  0.48368145    -0.25600
C2547       C  0.72657982  0.78272423  0.49184195    -0.14900
C2548       C  0.78110981  0.79886077  0.49457340     0.37400
N2549       N  0.81582556  0.84868221  0.50197038    -0.89100
H2550       H  0.84520150  0.78087329  0.49132812     0.18600
H2551       H  0.65524838  0.72018173  0.48184173     0.18600
N2552       N  0.68465416  0.65248707  0.47112032    -0.88200
H2553       H  0.82744400  0.84194760  0.51361979     0.35900
H2554       H  0.79709913  0.87128073  0.50396222     0.41000
H2555       H  0.70341782  0.62995604  0.46903186     0.40600
H2556       H  0.67314780  0.65957517  0.45950640     0.35500
C2557       C  0.89843966  0.98717977  0.87226946    -0.26200
C2558       C  0.90130614  0.95317529  0.86029592    -0.14300
C2559       C  0.86664432  0.89890805  0.86140381     0.36400
C2560       C  0.83029887  0.88047766  0.87447083    -0.25600
C2561       C  0.82857617  0.91430958  0.88678189    -0.14900
C2562       C  0.86312691  0.96840554  0.88566658     0.37400
N2563       N  0.86330901  0.00393473  0.89831618    -0.89100
H2564       H  0.92723899  0.53083815  0.87323701     0.18600
H2565       H  0.80371743  0.83893462  0.87513665     0.18600
N2566       N  0.86964866  0.86085132  0.85052359    -0.88200
H2567       H  0.88924339  0.54674328  0.89608716     0.35900
H2568       H  0.87573282  0.99493508  0.90945615     0.41000
H2569       H  0.90216042  0.87728218  0.84259961     0.40600
H2570       H  0.83555283  0.84389620  0.84324222     0.35500
C2571       C  0.54135957  0.90018380  0.88738072    -0.26200
C2572       C  0.59492762  0.91510057  0.88731588    -0.14300
C2573       C  0.62707912  0.94639488  0.87420379     0.36400
C2574       C  0.60516926  0.96376032  0.86177932    -0.25600
C2575       C  0.55143550  0.94936417  0.86205382    -0.14900
C2576       C  0.51949539  0.91684691  0.87494989     0.37400
N2577       N  0.96206347  0.89063255  0.87167220    -0.89100
H2578       H  0.51608989  0.87549506  0.89721385     0.18600
H2579       H  0.62588755  0.49804501  0.85361864     0.18600
N2580       N  0.68150962  0.95944288  0.87320160    -0.88200
H2581       H  0.94937073  0.89963815  0.88291128     0.35900
H2582       H  0.94566983  0.85007180  0.87080621     0.41000
H2583       H  0.70397466  0.00007207  0.87314479     0.40600
H2584       H  0.69259304  0.46717420  0.86465597     0.35500
C2585       C  0.58617495  0.59848004  0.87313291    -0.26200
C2586       C  0.54777072  0.59689420  0.86219144    -0.14300
C2587       C  0.52853676  0.63260988  0.86426421     0.36400
C2588       C  0.54981768  0.67104504  0.87678675    -0.25600
C2589       C  0.58952018  0.67379197  0.88753567    -0.14900
C2590       C  0.60713609  0.63634259  0.88585228     0.37400
N2591       N  0.64529279  0.63610501  0.89722673    -0.89100
H2592       H  0.59942609  0.56954378  0.87181706     0.18600
H2593       H  0.53534668  0.69905391  0.87801051     0.18600
N2594       N  0.99175497  0.62983892  0.85523883    -0.88200
H2595       H  0.65403635  0.60610438  0.89416498     0.35900
H2596       H  0.62799578  0.62766952  0.90908733     0.41000
H2597       H  0.00363394  0.66517584  0.84911838     0.40600
H2598       H  0.96025298  0.62365966  0.86308487     0.35500
C2599       C  0.76958715  0.83825209  0.76522105    -0.26200
C2600       C  0.76784744  0.87248477  0.77737869    -0.14300
C2601       C  0.80151765  0.92637111  0.77612378     0.36400
C2602       C  0.83611378  0.94520153  0.76263900    -0.25600
C2603       C  0.83714292  0.91115830  0.75027000    -0.14900
C2604       C  0.80391091  0.85708896  0.75157227     0.37400
N2605       N  0.80656966  0.82156832  0.73947346    -0.89100
H2606       H  0.74294564  0.79678320  0.76619654     0.18600
H2607       H  0.86235159  0.98679814  0.76179354     0.18600
N2608       N  0.79919064  0.96217522  0.78807918    -0.88200
H2609       H  0.79230600  0.82736734  0.72817346     0.35900
H2610       H  0.78140722  0.78296864  0.74283985     0.41000
H2611       H  0.79076060  0.98848935  0.78179054     0.40600
H2612       H  0.83659388  0.98352388  0.79335414     0.35500
C2613       C  0.56731861  0.86618105  0.77696649    -0.26200
C2614       C  0.62093594  0.88046732  0.77619514    -0.14300
C2615       C  0.65114054  0.90914361  0.76238430     0.36400
C2616       C  0.62769771  0.92293219  0.74969029    -0.25600
C2617       C  0.57489979  0.91042934  0.75073083    -0.14900
C2618       C  0.54398242  0.88152278  0.76443369     0.37400
N2619       N  0.48919654  0.86787046  0.76551061    -0.89100
H2620       H  0.54344039  0.84214290  0.78711076     0.18600
H2621       H  0.65180663  0.94616099  0.73941774     0.18600
N2622       N  0.70626921  0.92578503  0.76135015    -0.88200
H2623       H  0.47239151  0.84712653  0.77643543     0.35900
H2624       H  0.46985219  0.84272449  0.75550631     0.41000
H2625       H  0.72607153  0.96641175  0.76036224     0.40600
H2626       H  0.71328498  0.91028478  0.75036534     0.35500
C2627       C  0.61333067  0.65465516  0.76310781    -0.26200
C2628       C  0.58191751  0.65751020  0.75027961    -0.14300
C2629       C  0.56817724  0.69777958  0.75045714     0.36400
C2630       C  0.58375957  0.73261176  0.76403477    -0.25600
C2631       C  0.61512603  0.72969283  0.77688451    -0.14900
C2632       C  0.63135214  0.69137967  0.77611393     0.37400
N2633       N  0.66785541  0.69098120  0.78802178    -0.89100
H2634       H  0.62455290  0.62407809  0.76289681     0.18600
H2635       H  0.57288682  0.76342712  0.76435646     0.18600
N2636       N  0.53747770  0.70239089  0.73716738    -0.88200
H2637       H  0.70138651  0.69564186  0.78156077     0.35900
H2638       H  0.65065695  0.65428186  0.79359317     0.41000
H2639       H  0.04169967  0.70743434  0.73033822     0.40600
H2640       H  0.01234747  0.72426397  0.74547935     0.35500
C2641       C  0.60704139  0.97092458  0.81695433    -0.26200
C2642       C  0.55709416  0.94325228  0.82437714    -0.14300
C2643       C  0.53722054  0.88886920  0.82656748     0.36400
C2644       C  0.56681695  0.86372160  0.82146740    -0.25600
C2645       C  0.61669477  0.89124601  0.81395150    -0.14900
C2646       C  0.63664950  0.94602462  0.81175937     0.37400
N2647       N  0.68759315  0.97809224  0.80464766    -0.89100
H2648       H  0.61876300  0.51293514  0.81558090     0.18600
H2649       H  0.54973843  0.82189983  0.82288510     0.18600
N2650       N  0.48647871  0.85872406  0.83400588    -0.88200
H2651       H  0.68876977  0.96570299  0.79245436     0.35900
H2652       H  0.71569500  0.97421827  0.81163086     0.41000
H2653       H  0.96290001  0.82770836  0.82478344     0.40600
H2654       H  0.49108439  0.84067318  0.84459066     0.35500
C2655       C  0.85072209  0.95966011  0.82855050    -0.26200
C2656       C  0.89052529  0.94806735  0.82289327    -0.14300
C2657       C  0.87428805  0.90290180  0.81283106     0.36400
C2658       C  0.81980954  0.87047628  0.80923034    -0.25600
C2659       C  0.77963463  0.88201915  0.81488834    -0.14900
C2660       C  0.79639949  0.92708489  0.82529856     0.37400
N2661       N  0.76032345  0.94211089  0.83280360    -0.89100
H2662       H  0.86372868  0.49553925  0.83896376     0.18600
H2663       H  0.80860008  0.83620486  0.80142978     0.18600
N2664       N  0.91275708  0.88850797  0.80695434    -0.88200
H2665       H  0.76408370  0.44623319  0.84656312     0.35900
H2666       H  0.72136847  0.91527296  0.83015060     0.41000
H2667       H  0.93729891  0.91696997  0.79853451     0.40600
H2668       H  0.89459767  0.85339431  0.80022475     0.35500
C2669       C  0.63314860  0.69889836  0.82388755    -0.26200
C2670       C  0.60589412  0.71916404  0.81466260    -0.14300
C2671       C  0.55217382  0.68433780  0.81080159     0.36400
C2672       C  0.52793695  0.63104278  0.81581573    -0.25600
C2673       C  0.55553429  0.61056251  0.82480517    -0.14900
C2674       C  0.60916146  0.64551631  0.82870416     0.37400
N2675       N  0.63953474  0.62638898  0.83751499    -0.89100
H2676       H  0.67444792  0.72417208  0.82654309     0.18600
H2677       H  0.48664760  0.60574513  0.81315400     0.18600
N2678       N  0.52226066  0.70334736  0.80166040    -0.88200
H2679       H  0.67789434  0.65626377  0.83954489     0.35900
H2680       H  0.64243320  0.59856513  0.82986580     0.41000
H2681       H  0.51961932  0.73181451  0.80905723     0.40600
H2682       H  0.48378428  0.67359859  0.79972482     0.35500
C2683       C  0.88702655  0.84977194  0.20798156    -0.26200
C2684       C  0.92503185  0.85190238  0.21919066    -0.14300
C2685       C  0.94502591  0.81665378  0.21766325     0.36400
C2686       C  0.92548234  0.77875061  0.20503982    -0.25600
C2687       C  0.88712705  0.77605240  0.19382539    -0.14900
C2688       C  0.86685753  0.81151177  0.19548434     0.37400
N2689       N  0.82383621  0.80799528  0.18564182    -0.89100
H2690       H  0.87198322  0.87734768  0.20923355     0.18600
H2691       H  0.93959710  0.75053230  0.20414052     0.18600
N2692       N  0.98564352  0.82014353  0.22871615    -0.88200
H2693       H  0.83830002  0.84095326  0.17810050     0.35900
H2694       H  0.80801160  0.77519040  0.17783870     0.41000
H2695       H  0.01931243  0.85567388  0.22648242     0.40600
H2696       H  0.99575443  0.79090854  0.22590613     0.35500
C2697       C  0.95788518  0.62885730  0.21063778    -0.26200
C2698       C  0.92192539  0.59110357  0.22150670    -0.14300
C2699       C  0.86726745  0.56935740  0.21857733     0.36400
C2700       C  0.85019150  0.58707503  0.20505578    -0.25600
C2701       C  0.88610550  0.62477872  0.19417956    -0.14900
C2702       C  0.94063423  0.64591997  0.19701271     0.37400
N2703       N  0.97934997  0.68449150  0.18637695    -0.89100
H2704       H  0.99984757  0.64421318  0.21253421     0.18600
H2705       H  0.80825777  0.57155451  0.20307915     0.18600
N2706       N  0.83310528  0.02161694  0.22673584    -0.88200
H2707       H  0.97098527  0.71527129  0.18492207     0.35900
H2708       H  0.97744183  0.66754112  0.17470194     0.41000
H2709       H  0.85100726  0.01041100  0.23589840     0.40600
H2710       H  0.81457641  0.98969958  0.21859095     0.35500
C2711       C  0.69574421  0.63155331  0.22067481    -0.26200
C2712       C  0.66280224  0.57773080  0.22013883    -0.14300
C2713       C  0.66775579  0.54735879  0.20710183     0.36400
C2714       C  0.70605984  0.57195759  0.19470318    -0.25600
C2715       C  0.73826737  0.62618000  0.19504260    -0.14900
C2716       C  0.73303238  0.65604884  0.20814708     0.37400
N2717       N  0.76499258  0.71151577  0.20860873    -0.89100
H2718       H  0.69099495  0.65499103  0.23047201     0.18600
H2719       H  0.71146635  0.54885409  0.18494891     0.18600
N2720       N  0.62821555  0.98632798  0.20580177    -0.88200
H2721       H  0.74010196  0.72832415  0.20854473     0.35900
H2722       H  0.78588088  0.72183416  0.21985338     0.41000
H2723       H  0.63624178  0.97025261  0.21627577     0.40600
H2724       H  0.63643653  0.96970919  0.19531068     0.35500
C2725       C  0.61465608  0.96514677  0.31062603    -0.26200
C2726       C  0.57290146  0.92661929  0.30133371    -0.14300
C2727       C  0.54363589  0.87638072  0.30818247     0.36400
C2728       C  0.55542129  0.86636411  0.32424736    -0.25600
C2729       C  0.59659045  0.90528615  0.33367614    -0.14900
C2730       C  0.62661379  0.95516628  0.32660918     0.37400
N2731       N  0.66937060  0.99617390  0.33556436    -0.89100
H2732       H  0.63737973  0.00419691  0.30576273     0.18600
H2733       H  0.53300556  0.82729486  0.32912301     0.18600
N2734       N  0.02879002  0.84203024  0.29500828    -0.88200
H2735       H  0.66177079  0.02771399  0.33674009     0.35900
H2736       H  0.70365531  0.00813923  0.32844869     0.41000
H2737       H  0.99108633  0.81830088  0.29978358     0.40600
H2738       H  0.04749506  0.81913616  0.29345559     0.35500
C2739       C  0.62393892  0.66199562  0.30904306    -0.26200
C2740       C  0.57314064  0.64691020  0.30288427    -0.14300
C2741       C  0.53847061  0.65763057  0.31282408     0.36400
C2742       C  0.55527527  0.68259788  0.32828174    -0.25600
C2743       C  0.60606833  0.69767767  0.33446182    -0.14900
C2744       C  0.64073329  0.68693528  0.32452119     0.37400
N2745       N  0.69331455  0.70081220  0.32956982    -0.89100
H2746       H  0.65114073  0.65376408  0.30186597     0.18600
H2747       H  0.52796285  0.69071819  0.33543663     0.18600
N2748       N  0.00817483  0.67768986  0.30093951    -0.88200
H2749       H  0.69193339  0.68364419  0.34105205     0.35900
H2750       H  0.71529166  0.74143886  0.33060114     0.41000
H2751       H  0.97529016  0.64088278  0.29971530     0.40600
H2752       H  0.02220208  0.69340284  0.28915926     0.35500
C2753       C  0.80603401  0.94201971  0.32310464    -0.26200
C2754       C  0.81850226  0.91420101  0.33491574    -0.14300
C2755       C  0.85742551  0.89958053  0.33097599     0.36400
C2756       C  0.88216599  0.91236976  0.31541070    -0.25600
C2757       C  0.86914085  0.93956379  0.30356558    -0.14900
C2758       C  0.83095067  0.95501580  0.30759390     0.37400
N2759       N  0.81542884  0.98242183  0.29608871    -0.89100
H2760       H  0.77549700  0.95268300  0.32573098     0.18600
H2761       H  0.91279004  0.90188333  0.31270369     0.18600
N2762       N  0.87378244  0.87316753  0.34258933    -0.88200
H2763       H  0.80434414  0.96135216  0.28483901     0.35900
H2764       H  0.84730967  0.01919895  0.29392795     0.41000
H2765       H  0.84241835  0.83607926  0.34482444     0.40600
H2766       H  0.88450309  0.89454813  0.35376746     0.35500
C2767       C  0.72865773  0.53765615  0.44200237    -0.26200
C2768       C  0.78080774  0.55633999  0.44711980    -0.14300
C2769       C  0.81082898  0.53382915  0.44043826     0.36400
C2770       C  0.78971709  0.49765304  0.42734314    -0.25600
C2771       C  0.75703642  0.00407171  0.41585289    -0.14900
C2772       C  0.73584365  0.03810147  0.41833350     0.37400
N2773       N  0.69596834  0.03741364  0.40763777    -0.89100
H2774       H  0.70474827  0.55310270  0.44764250     0.18600
H2775       H  0.81256674  0.48035525  0.42207141     0.18600
N2776       N  0.86098829  0.54435727  0.44717487    -0.88200
H2777       H  0.66358432  0.00001014  0.40776209     0.35900
H2778       H  0.71095762  0.04543634  0.39547855     0.41000
H2779       H  0.87346536  0.57310540  0.45645695     0.40600
H2780       H  0.88896434  0.55788128  0.43758530     0.35500
C2781       C  0.51283828  0.79379989  0.43183879    -0.26200
C2782       C  0.51550796  0.76228966  0.41886326    -0.14300
C2783       C  0.96836215  0.69897216  0.41819934     0.36400
C2784       C  0.93189088  0.67801688  0.43123327    -0.25600
C2785       C  0.92988610  0.70941290  0.44435809    -0.14900
C2786       C  0.96367567  0.76366451  0.44400477     0.37400
N2787       N  0.95778621  0.79765394  0.45596006    -0.89100
H2788       H  0.54095847  0.83502560  0.43214117     0.18600
H2789       H  0.90372169  0.63714344  0.43088227     0.18600
N2790       N  0.97055007  0.66585340  0.40511018    -0.88200
H2791       H  0.49629733  0.84547728  0.45443410     0.35900
H2792       H  0.92079862  0.79503369  0.45410006     0.41000
H2793       H  0.95948601  0.67641566  0.39400470     0.40600
H2794       H  0.94284474  0.62695251  0.40722212     0.35500
C2795       C  0.80153163  0.76563339  0.44484784    -0.26200
C2796       C  0.78334280  0.71169942  0.44377312    -0.14300
C2797       C  0.75257331  0.68390434  0.42983691     0.36400
C2798       C  0.74083092  0.70977434  0.41738460    -0.25600
C2799       C  0.75762863  0.76300842  0.41870149    -0.14900
C2800       C  0.78794541  0.79147842  0.43265340     0.37400
N2801       N  0.80611821  0.84662443  0.43414728    -0.89100
H2802       H  0.82689175  0.78777985  0.45509092     0.18600
H2803       H  0.71639634  0.68751734  0.40694849     0.18600
N2804       N  0.73182275  0.62888708  0.42834083    -0.88200
H2805       H  0.83114467  0.86213840  0.44443217     0.35900
H2806       H  0.77346675  0.85192410  0.43674866     0.41000
H2807       H  0.74537358  0.62081619  0.41711468     0.40600
H2808       H  0.69077403  0.61186430  0.42768885     0.35500
loop_ 
_geom_bond_atom_site_label_1 
_geom_bond_atom_site_label_2 
_geom_bond_distance 
_geom_bond_site_symmetry_2 
_ccdc_geom_bond_type 
Zn1           O5   1.938       .  S
Zn1           O6   1.978       .  S
Zn1          O10   2.020       .  S
Zn1          O17   1.991       .  S
Zn2           O5   1.945       .  S
Zn2           O7   2.023       .  S
Zn2           O9   1.997       .  S
Zn2          O13   2.001       .  S
Zn3           O5   1.897       .  S
Zn3           O8   1.905       .  S
Zn3          O11   1.939       .  S
Zn3          O14   1.930       .  S
Zn4           O5   1.938       .  S
Zn4          O12   2.030       .  S
Zn4          O15   1.981       .  S
Zn4          O16   1.991       .  S
O6           C18   1.270       .  A
O7           C19   1.276       .  A
O8           C20   1.258       .  A
O9           C18   1.270       .  A
O10          C20   1.272       .  A
O11          C19   1.262       .  A
O12          C21   1.274       .  A
O13          C22   1.271       .  A
O14          C21   1.262       .  A
O15          C22   1.271       .  A
O16          C23   1.272       .  A
O17          C23   1.271       .  A
C18         C648   1.478       .  S
C19         C693   1.457       .  S
C20         C665   1.442       .  S
C21         C676   1.456       .  S
C22         C637   1.478       .  S
C23         C623   1.478       .  S
Zn24        O730   1.939       .  S
Zn24         O29   1.994       .  S
Zn24         O33   2.024       .  S
Zn24        O742   2.001   1_545  S
Zn25       O2134   1.945   1_545  S
Zn25         O30   2.019       .  S
Zn25       O1436   1.995       .  S
Zn25        O738   1.995   1_545  S
Zn26         O28   1.907       .  S
Zn26        O733   1.962   1_655  S
Zn26       O2140   1.944       .  S
Zn26       O1441   1.939       .  S
Zn27       O1432   1.945       .  S
Zn27         O35   2.021       .  S
Zn27         O38   1.993       .  S
Zn27       O1443   1.985       .  S
O28        Zn726   1.949   1_655  S
O28       Zn2131   1.944       .  S
O28       Zn1431   1.939       .  S
O29          C41   1.272       .  A
O30          C42   1.274       .  A
O31        Zn728   1.942       .  S
O31          C43   1.265       .  A
O32       Zn1429   1.988   1_455  S
O32          C41   1.269       .  A
O33          C43   1.276       .  A
O34       Zn2132   1.938   1_545  S
O34          C42   1.263       .  A
O35          C44   1.274       .  A
O36        Zn727   1.989       .  S
O36          C45   1.269       .  A
O37       Zn1430   1.941       .  S
O37          C44   1.263       .  A
O38          C45   1.272       .  A
O39       Zn1431   1.984   1_455  S
O39          C46   1.270       .  A
O40        Zn726   2.001       .  S
O40          C46   1.272       .  A
C41         C634   1.478       .  S
C42         C592   1.455       .  S
C43         C606   1.458       .  S
C44         C578   1.453       .  S
C45         C651   1.475       .  S
C46         C620   1.478       .  S
C47          H48   1.109       .  S
C47          C53   1.593       .  S
C47          C52   1.594       .  S
C47          C51   1.594       .  S
C49          H50   1.112       .  S
C49          C55   1.512       .  S
C49          C54   1.512       .  S
C49          C56   1.508       .  S
C51          C54   1.377       .  D
C51         C539   1.530       .  S
C52          C55   1.378       .  D
C52         C553   1.539       .  S
C53          C56   1.372       .  D
C53         C564   1.535       .  S
C54         C508   1.482       .  S
C55         C494   1.477       .  S
C56         C525   1.477       .  S
C57          H58   1.109       .  S
C57        C2169   1.594   1_545  S
C57         C764   1.597   1_545  S
C57        C1465   1.599       .  S
C59        H1464   1.113       .  S
C59         C767   1.516   1_545  S
C59        C1468   1.515       .  S
C59        C2172   1.515   1_545  S
H60        C1463   1.113       .  S
C61        C1461   1.595       .  S
C61          C64   1.375       .  D
C61         C567   1.536       .  S
C62         C759   1.593       .  S
C62          C65   1.376       .  D
C62         C550   1.531       .  S
C63        C2163   1.596       .  S
C63          C66   1.376       .  D
C63         C536   1.526       .  S
C64        C1463   1.513       .  S
C64         C480   1.477       .  S
C65         C761   1.513       .  S
C65         C452   1.479       .  S
C66        C2165   1.514       .  S
C66         C469   1.488       .  S
C67          H68   1.109       .  S
C67          C73   1.528       .  S
C67          C72   1.522       .  S
C67          C71   1.525       .  S
C69          H70   1.110       .  S
C69          C75   1.594       .  S
C69          C74   1.587       .  S
C69          C76   1.588       .  S
C71          C74   1.379       .  D
C71         C399   1.498       .  S
C72          C75   1.380       .  D
C72         C382   1.492       .  S
C73          C76   1.362       .  D
C73         C371   1.474       .  S
C74         C441   1.527       .  S
C75         C424   1.535       .  S
C76         C413   1.531       .  S
C77          H78   1.110       .  S
C77          C83   1.517       .  S
C77          C82   1.511       .  S
C77          C81   1.511       .  S
C79          H80   1.110       .  S
C79          C85   1.594       .  S
C79          C84   1.588       .  S
C79          C86   1.590       .  S
C81          C84   1.362       .  D
C81         C662   1.469       .  S
C82          C85   1.376       .  D
C82         C679   1.479       .  S
C83          C86   1.379       .  D
C83         C690   1.490       .  S
C84         C410   1.522       .  S
C85         C427   1.530       .  S
C86         C438   1.526       .  S
Zn87         O91   1.915       .  S
Zn87         O92   2.003       .  S
Zn87         O96   2.043       .  S
Zn87        O103   1.973       .  S
Zn88         O91   1.899       .  S
Zn88         O93   2.041       .  S
Zn88         O95   2.001       .  S
Zn88         O99   1.987       .  S
Zn89         O91   1.850       .  S
Zn89         O94   1.958       .  S
Zn89         O97   1.946       .  S
Zn89        O100   1.956       .  S
Zn90         O91   1.920       .  S
Zn90         O98   2.065       .  S
Zn90        O101   2.015       .  S
Zn90        O102   2.001       .  S
O92         C104   1.272       .  A
O93         C105   1.277       .  A
O94         C106   1.265       .  A
O95         C104   1.276       .  A
O96         C106   1.276       .  A
O97         C105   1.265       .  A
O98         C107   1.280       .  A
O99         C108   1.273       .  A
O100        C107   1.266       .  A
O101        C108   1.274       .  A
O102        C109   1.274       .  A
O103        C109   1.273       .  A
C104        C396   1.475       .  S
C105        C340   1.467       .  S
C106        C357   1.462       .  S
C107        C329   1.480       .  S
C108        C385   1.473       .  S
C109        C368   1.478       .  S
Zn110       O114   1.893       .  S
Zn110       O119   1.965   1_665  S
Zn110      O2221   1.933       .  S
Zn110       O828   1.960   1_655  S
Zn111      O2220   1.932       .  S
Zn111       O118   2.027       .  S
Zn111       O122   1.982       .  S
Zn111       O818   1.990       .  S
Zn112       O114   1.934   1_445  S
Zn112       O117   2.023       .  S
Zn112       O123   1.969       .  S
Zn112      O1524   1.994   1_455  S
Zn113       O816   1.939   1_455  S
Zn113       O125   2.030       .  S
Zn113       O823   2.000       .  S
Zn113      O1528   1.984       .  S
O114      Zn2217   1.939       .  S
O114       Zn815   1.941   1_655  S
O115      Zn2216   1.947       .  S
O115        C127   1.265       .  A
O116       Zn813   1.994       .  S
O116        C128   1.270   1_565  A
O117        C129   1.274       .  A
O118        C127   1.275       .  A
O119        C129   1.267       .  A
O120      Zn1516   1.995       .  S
O120        C128   1.272       .  A
O121       Zn815   2.005   1_545  S
O121        C130   1.276       .  A
O122        C131   1.271       .  A
O123        C130   1.267       .  A
O124      Zn1517   1.994       .  S
O124        C131   1.270       .  A
O125        C132   1.276       .  A
O126       Zn812   1.940   1_455  S
O126        C132   1.263       .  A
C127        C497   1.463       .  S
C128        C326   1.472       .  S
C129        C522   1.469       .  S
C130        C354   1.476       .  S
C131        C343   1.467       .  S
C132        C511   1.464       .  S
C133        H134   1.109       .  S
C133        C139   1.596       .  S
C133        C138   1.587       .  S
C133        C137   1.598       .  S
C135        H136   1.113       .  S
C135        C141   1.506       .  S
C135        C140   1.507       .  S
C135        C142   1.503       .  S
C137        C140   1.376       .  D
C137        C312   1.531       .  S
C138        C141   1.368       .  D
C138        C284   1.525       .  S
C139        C142   1.370       .  D
C139        C298   1.532       .  S
C140        C609   1.481       .  S
C141        C595   1.466       .  S
C142        C581   1.470       .  S
C143        H144   1.109       .  S
C143        C148   1.591   1_565  S
C143       C1553   1.595   1_565  S
C143        C849   1.596       .  S
C145        H146   1.114       .  S
C145        C151   1.509   1_565  S
C145        C852   1.512       .  S
C145       C1556   1.513   1_565  S
C147        C845   1.591       .  S
C147        C150   1.369       .  D
C147        C301   1.531       .  S
C148        C151   1.372       .  D
C148        C287   1.527       .  S
C149       C1547   1.593       .  S
C149        C152   1.372       .  D
C149        C315   1.529       .  S
C150        C847   1.508       .  S
C150        C242   1.467       .  S
C151        C256   1.475       .  S
C152       C1549   1.513       .  S
C152        C273   1.480       .  S
Zn153       O157   1.913       .  S
Zn153       O158   2.003       .  S
Zn153       O162   2.019       .  S
Zn153       O169   2.063       .  S
Zn154       O157   1.903       .  S
Zn154       O159   2.003       .  S
Zn154       O161   1.984       .  S
Zn154       O165   2.036       .  S
Zn155       O157   1.901       .  S
Zn155       O160   1.998       .  S
Zn155       O163   2.014       .  S
Zn155       O166   2.061       .  S
Zn156       O157   1.848       .  S
Zn156       O164   1.937       .  S
Zn156       O167   1.955       .  S
Zn156       O168   1.949       .  S
O158        C170   1.276       .  A
O159        C171   1.273       .  A
O160        C172   1.276       .  A
O161        C170   1.273       .  A
O162        C172   1.278       .  A
O163        C171   1.277       .  A
O164        C173   1.263       .  A
O165        C174   1.277       .  A
O166        C173   1.278       .  A
O167        C174   1.265       .  A
O168        C175   1.263       .  A
O169        C175   1.276       .  A
C170        C455   1.471       .  S
C171        C466   1.476       .  S
C172        C483   1.476       .  S
C173        C231   1.480       .  S
C174        C217   1.476       .  S
C175        C200   1.483       .  S
Zn176       O180   1.916       .  S
Zn176       O181   2.016       .  S
Zn176       O185   2.063       .  S
Zn176       O192   2.005       .  S
Zn177       O180   1.895       .  S
Zn177       O182   2.042       .  S
Zn177       O184   2.010       .  S
Zn177       O188   1.993       .  S
Zn178       O180   1.847       .  S
Zn178       O183   1.948       .  S
Zn178       O186   1.955       .  S
Zn178       O189   1.950       .  S
Zn179       O180   1.910       .  S
Zn179       O187   2.054       .  S
Zn179       O190   2.010       .  S
Zn179       O191   1.976       .  S
O181        C193   1.276       .  A
O182        C194   1.278       .  A
O183        C195   1.263       .  A
O184        C193   1.275       .  A
O185        C195   1.277       .  A
O186        C194   1.266       .  A
O187        C196   1.275       .  A
O188        C197   1.275       .  A
O189        C196   1.264       .  A
O190        C197   1.276       .  A
O191        C198   1.273       .  A
O192        C198   1.276       .  A
C193        C270   1.481       .  S
C194        C214   1.469       .  S
C195        C203   1.483       .  S
C196        C228   1.480       .  S
C197        C259   1.478       .  S
C198        C245   1.472       .  S
C199        C200   1.413       .  A
C199        C204   1.396   1_556  A
C199        H206   1.084       .  S
C200        C201   1.410       .  A
C201        C202   1.396       .  A
C201        N208   1.432       .  S
C202        C203   1.413   1_556  A
C202        H207   1.084       .  S
C203        C204   1.410       .  A
C204        N205   1.432       .  S
N205        H209   1.046       .  S
N205        H210   1.044       .  S
N208        H211   1.045       .  S
N208        H212   1.045       .  S
C213        C214   1.401   1_556  A
C213        C920   1.399   1_545  A
C213        H220   1.084   1_556  S
C214        C215   1.411   1_554  A
C215        C918   1.401       .  A
C215        N222   1.433       .  S
C216        C217   1.402       .  A
C216        C917   1.397       .  A
C216        H221   1.084       .  S
C217        C218   1.415       .  A
C218        C915   1.400   1_556  A
C218        N219   1.433       .  S
N219        H223   1.046       .  S
N219        H224   1.046       .  S
N222        H225   1.046       .  S
N222        H226   1.045       .  S
C227        C228   1.407   1_556  A
C227        C232   1.399       .  A
C227        H234   1.084       .  S
C228       C1633   1.409       .  A
C229        C230   1.400       .  A
C229       C1632   1.407   1_455  A
C229        N236   1.432   1_556  S
C230        C231   1.411       .  A
C230        H235   1.084       .  S
C231       C1636   1.406   1_455  A
C232       C1635   1.408       .  A
C232        N233   1.432       .  S
N233        H237   1.046       .  S
N233        H238   1.046       .  S
N236        H239   1.046       .  S
N236        H240   1.046       .  S
C241        C242   1.398       .  A
C241        C246   1.393       .  A
C241        H248   1.081       .  S
C242        C243   1.411       .  A
C243        C244   1.396       .  A
C243       N1654   1.438       .  S
C244        C245   1.408       .  A
C244        H249   1.084       .  S
C245        C246   1.408       .  A
C246        N247   1.432       .  S
N247        H251   1.046       .  S
N247        H252   1.046       .  S
N250       C1647   1.439   1_455  S
N250        H253   1.043       .  S
N250        H254   1.045       .  S
C255        C256   1.401       .  A
C255        C260   1.402       .  A
C255        H262   1.081       .  S
C256        C257   1.401       .  A
C257        C258   1.398       .  A
C257        N264   1.432   1_545  S
C258        C259   1.409       .  A
C258        H263   1.084       .  S
C259        C260   1.414       .  A
C260        N261   1.438       .  S
N261        H265   1.046       .  S
N261        H266   1.046       .  S
N264        H267   1.045       .  S
N264        H268   1.045   1_565  S
C269        C270   1.408       .  A
C269        C274   1.406       .  A
C269        H276   1.083       .  S
C270        C271   1.410       .  A
C271        C272   1.397       .  A
C271        N278   1.432       .  S
C272        C273   1.400       .  A
C272        H277   1.082   1_545  S
C273        C274   1.409       .  A
C274        N275   1.437       .  S
N275        H279   1.044       .  S
N275        H280   1.046       .  S
N278        H281   1.046   1_545  S
N278        H282   1.046   1_545  S
C283        C284   1.417       .  A
C283        C288   1.416       .  A
C283        H290   1.083       .  S
C284        C285   1.412       .  A
C285        C286   1.423       .  A
C285        N292   1.437       .  S
C286        C287   1.417       .  A
C286       H1695   1.083       .  S
C287        C288   1.414       .  A
C288        N289   1.432   1_545  S
N289        H995   1.045       .  S
N289        H996   1.045       .  S
H291       C1690   1.083       .  S
N292        H295   1.045       .  S
N292       H1700   1.045       .  S
H293        N991   1.045       .  S
H294        N991   1.045       .  S
H296       N1696   1.045       .  S
C297        C298   1.419       .  A
C297        C302   1.418       .  A
C297        H304   1.084       .  S
C298        C299   1.412       .  A
C299        C300   1.426       .  A
C299        N306   1.436       .  S
C300        C301   1.419       .  A
C300        H305   1.083       .  S
C301        C302   1.415       .  A
C302        N303   1.432       .  S
N303       H1711   1.045       .  S
N303       H1712   1.044       .  S
N306        H309   1.045       .  S
N306        H310   1.045       .  S
H307       N1707   1.046       .  S
H308       N1707   1.041       .  S
C311        C312   1.415       .  A
C311        C316   1.421       .  A
C311        H318   1.084       .  S
C312        C313   1.423       .  A
C313        C314   1.418       .  A
C313        N320   1.436       .  S
C314        C315   1.413       .  A
C314        H319   1.084       .  S
C315        C316   1.422       .  A
C316        N317   1.437       .  S
N317        H321   1.046       .  S
N317        H322   1.041       .  S
N320        H323   1.039       .  S
N320        H324   1.046       .  S
C325        C326   1.405       .  A
C325        C330   1.404       .  A
C325        H332   1.084       .  S
C326        C327   1.409       .  A
C327        C328   1.397       .  A
C327        N334   1.433       .  S
C328        C329   1.410       .  A
C328        H333   1.084       .  S
C329        C330   1.412       .  A
C330        N331   1.438       .  S
N331        H335   1.045       .  S
N331        H336   1.046       .  S
N334        H337   1.045       .  S
N334        H338   1.045   1_545  S
C339        C340   1.407       .  A
C339        C344   1.396       .  A
C339        H346   1.084       .  S
C340        C341   1.407       .  A
C341        C342   1.399       .  A
C341        N348   1.438       .  S
C342        C343   1.405       .  A
C342        H347   1.084       .  S
C343        C344   1.410       .  A
C344       N1749   1.433       .  S
N345       C1748   1.433       .  S
N345        H349   1.046       .  S
N345        H350   1.044   1_655  S
N348        H351   1.045       .  S
N348        H352   1.046       .  S
C353        C354   1.406       .  A
C353        C358   1.399       .  A
C353        H360   1.084       .  S
C354        C355   1.419       .  A
C355        C356   1.396       .  A
C355        N362   1.433       .  S
C356        C357   1.402       .  A
C356        H361   1.084       .  S
C357        C358   1.406       .  A
C358        N359   1.439       .  S
N359        H364   1.046       .  S
N359       H1065   1.046   1_545  S
N362        H365   1.045       .  S
N362        H366   1.045       .  S
H363       N1061   1.045       .  S
C367        C372   1.394       .  A
C367       C1070   1.407       .  A
C367       H1076   1.084       .  S
C368       C1069   1.408       .  A
C368       C1071   1.415   1_545  A
C369        C370   1.398       .  A
C369       C1070   1.414       .  A
C369       N1078   1.438       .  S
C370        C371   1.394       .  A
C370        H375   1.082       .  S
C371        C372   1.400       .  A
C372        N373   1.431       .  S
N373        H377   1.045       .  S
N373        H378   1.044       .  S
H374       C1069   1.084       .  S
N376       C1071   1.438   1_545  S
N376        H379   1.045       .  S
N376        H380   1.045   1_545  S
C381        C382   1.403       .  A
C381        C386   1.402       .  A
C381        H388   1.084       .  S
C382        C383   1.417       .  A
C383       C1788   1.391       .  A
C383        N390   1.425       .  S
C384        C385   1.396       .  A
C384       C1787   1.389       .  A
C384        H389   1.085       .  S
C385       C1790   1.417       .  A
C386       C1789   1.418   1_455  A
C386        N387   1.432   1_455  S
N387        H391   1.046       .  S
N387       H1796   1.044       .  S
N390        H393   1.045       .  S
N390        H394   1.035       .  S
H392       N1791   1.044       .  S
C395        C396   1.392       .  A
C395        C400   1.391       .  A
C395        H402   1.085       .  S
C396        C397   1.413       .  A
C397        C398   1.409       .  A
C397        N404   1.432       .  S
C398        C399   1.406       .  A
C398        H403   1.083       .  S
C399        C400   1.412       .  A
C400        N401   1.421       .  S
N401        H405   1.046       .  S
N401        H406   1.046       .  S
N404        H407   1.046       .  S
N404        H408   1.046       .  S
C409        C410   1.414       .  A
C409       C1116   1.419   1_545  A
C409        H416   1.082       .  S
C410        C411   1.408       .  A
C411       C1114   1.420   1_545  A
C411        N418   1.431       .  S
C412        C413   1.418       .  A
C412       C1113   1.424       .  A
C412        H417   1.083       .  S
C413        C414   1.419       .  A
C414       C1111   1.421       .  A
C414        N415   1.436       .  S
N415        H419   1.044       .  S
N415        H420   1.044       .  S
N418        H421   1.045       .  S
N418        H422   1.046       .  S
C423        C424   1.409       .  A
C423       C1832   1.425   1_455  A
C423        H430   1.082       .  S
C424        C425   1.431       .  A
C425       C1830   1.420   1_455  A
C425        N432   1.435       .  S
C426        C427   1.404       .  A
C426       C1829   1.420       .  A
C426        H431   1.083       .  S
C427        C428   1.421       .  A
C428       C1827   1.423       .  A
C428        N429   1.431       .  S
N429        H433   1.045       .  S
N429        H434   1.045       .  S
N432        H435   1.043       .  S
N432        H436   1.044       .  S
C437        C438   1.406       .  A
C437        C442   1.419       .  A
C437        H444   1.083       .  S
C438        C439   1.428       .  A
C439        C440   1.419       .  A
C439        N446   1.438       .  S
C440        C441   1.406       .  A
C440        H445   1.083       .  S
C441        C442   1.429       .  A
C442        N443   1.438       .  S
N443        H447   1.046       .  S
N443        H448   1.043       .  S
N446        H449   1.043       .  S
N446        H450   1.046       .  S
C451        C452   1.402       .  A
C451        C456   1.397       .  A
C451       H1160   1.084       .  S
C452        C453   1.417       .  A
C453        C454   1.395       .  A
C453        N460   1.436       .  S
C454        C455   1.404       .  A
C454        H459   1.084       .  S
C455        C456   1.410       .  A
C456        N457   1.438       .  S
N457        H462   1.046       .  S
N457       H1163   1.046       .  S
H458       C1153   1.083   1_545  S
N460        H463   1.041       .  S
N460        H464   1.045       .  S
H461       N1159   1.046       .  S
C465        C466   1.396       .  A
C465        C470   1.394       .  A
C465        H472   1.084       .  S
C466        C467   1.415       .  A
C467        C468   1.408       .  A
C467        N474   1.432       .  S
C468        C469   1.402       .  A
C468       H1175   1.084       .  S
C469        C470   1.410       .  A
C470       N1875   1.427   1_455  S
N471       C1874   1.428       .  S
N471        H475   1.046       .  S
N471        H476   1.046       .  S
H473       C1170   1.084   1_545  S
N474        H477   1.046       .  S
N474       H1180   1.045       .  S
H478       N1176   1.046       .  S
C479        C480   1.403       .  A
C479        C484   1.399       .  A
C479        H486   1.084       .  S
C480        C481   1.402       .  A
C481        C482   1.400       .  A
C481       N1892   1.431   1_455  S
C482        C483   1.408       .  A
C482        H487   1.084       .  S
C483        C484   1.408       .  A
C484        N485   1.433       .  S
N485        H489   1.046       .  S
N485        H490   1.046       .  S
N488       C1885   1.432       .  S
N488        H491   1.046       .  S
N488        H492   1.045       .  S
C493        C494   1.404       .  A
C493        C498   1.398       .  A
C493        H500   1.084       .  S
C494        C495   1.407       .  A
C495        C496   1.396       .  A
C495        N502   1.432       .  S
C496        C497   1.404       .  A
C496        H501   1.084       .  S
C497        C498   1.404       .  A
C498        N499   1.432       .  S
N499        H503   1.046       .  S
N499        H504   1.046       .  S
N502        H505   1.045       .  S
N502        H506   1.045       .  S
C507        C508   1.399       .  A
C507        C512   1.400       .  A
C507        H514   1.083       .  S
C508        C509   1.415       .  A
C509        C510   1.394       .  A
C509        N516   1.430       .  S
C510        C511   1.393       .  A
C510        H515   1.084       .  S
C511        C512   1.413       .  A
C512        N513   1.433   1_455  S
N513        H517   1.046       .  S
N513        H518   1.046       .  S
N516        H519   1.046       .  S
N516        H520   1.046       .  S
C521        C522   1.406       .  A
C521        C526   1.401       .  A
C521        H528   1.084       .  S
C522        C523   1.409       .  A
C523        C524   1.400       .  A
C523        N530   1.438       .  S
C524        C525   1.403       .  A
C524        H529   1.084       .  S
C525        C526   1.406       .  A
C526        N527   1.437       .  S
N527        H531   1.045       .  S
N527        H532   1.046       .  S
N530       H1937   1.045       .  S
N530       H1938   1.046       .  S
H533       N1934   1.045       .  S
H534       N1934   1.046       .  S
C535        C536   1.406       .  A
C535        C540   1.419       .  A
C535       H1244   1.083       .  S
C536        C537   1.419       .  A
C537        C538   1.422       .  A
C537        N544   1.431   1_455  S
C538        C539   1.407       .  A
C538        H543   1.083       .  S
C539        C540   1.430       .  A
C540        N541   1.433       .  S
N541        H545   1.041       .  S
N541        H546   1.042       .  S
H542       C1237   1.083   1_545  S
N544        H548   1.046       .  S
N544       H1951   1.045       .  S
H547       N1948   1.045       .  S
C549        C550   1.413       .  A
C549        C554   1.416       .  A
C549       H1258   1.084       .  S
C550        C551   1.413       .  A
C551        C552   1.425       .  A
C551        N558   1.436       .  S
C552        C553   1.421       .  A
C552        H557   1.083       .  S
C553        C554   1.425       .  A
C554        N555   1.435       .  S
N555        H560   1.029       .  S
N555       H1261   1.051       .  S
H556       C1251   1.084       .  S
N558        H561   1.045       .  S
N558        H562   1.045       .  S
H559       N1257   1.046       .  S
C563        C564   1.406       .  A
C563        C568   1.426       .  A
C563        H570   1.083       .  S
C564        C565   1.426       .  A
C565        C566   1.427       .  A
C565        N572   1.437       .  S
C566        C567   1.407       .  A
C566        H571   1.083   1_455  S
C567        C568   1.426       .  A
C568        N569   1.437       .  S
N569        H573   1.045       .  S
N569        H574   1.045       .  S
N572        H575   1.045       .  S
N572        H576   1.045   1_455  S
C577        C578   1.400       .  A
C577        C582   1.394       .  A
C577        H584   1.084       .  S
C578        C579   1.403       .  A
C579        C580   1.397       .  A
C579        N586   1.438       .  S
C580        C581   1.403       .  A
C580        H585   1.084       .  S
C581        C582   1.415       .  A
C582        N583   1.438       .  S
N583        H587   1.045       .  S
N583        H588   1.042       .  S
N586        H589   1.046       .  S
N586        H590   1.046       .  S
C591        C592   1.404       .  A
C591        C596   1.395       .  A
C591        H598   1.085       .  S
C592        C593   1.413       .  A
C593        C594   1.392       .  A
C593       N1302   1.440       .  S
C594        C595   1.401       .  A
C594        H599   1.085       .  S
C595        C596   1.411       .  A
C596        N597   1.438       .  S
N597        H601   1.042       .  S
N597        H602   1.046       .  S
N600       C1295   1.439       .  S
N600        H603   1.042       .  S
N600        H604   1.046       .  S
C605        C606   1.393       .  A
C605        C610   1.394       .  A
C605        H612   1.084       .  S
C606        C607   1.411       .  A
C607        C608   1.401       .  A
C607       N1316   1.438   1_545  S
C608        C609   1.401       .  A
C608        H613   1.082       .  S
C609        C610   1.413       .  A
C610        N611   1.430       .  S
N611        H615   1.045       .  S
N611        H616   1.046       .  S
N614       C1309   1.438       .  S
N614        H617   1.045       .  S
N614        H618   1.046       .  S
C619        C620   1.407       .  A
C619        C624   1.401       .  A
C619        H626   1.084       .  S
C620        C621   1.410       .  A
C621        C622   1.399       .  A
C621       N2032   1.433       .  S
C622        C623   1.406       .  A
C622        H627   1.084       .  S
C623        C624   1.410       .  A
C624        N625   1.433       .  S
N625        H629   1.046       .  S
N625        H630   1.046       .  S
N628       C2025   1.433       .  S
N628        H631   1.046       .  S
N628        H632   1.046       .  S
C633        C634   1.404       .  A
C633        C638   1.397       .  A
C633        H640   1.084       .  S
C634        C635   1.420       .  A
C635        C636   1.393       .  A
C635       N2046   1.433   1_455  S
C636        C637   1.402       .  A
C636        H641   1.084       .  S
C637        C638   1.419       .  A
C638        N639   1.433       .  S
N639        H643   1.045       .  S
N639        H644   1.045       .  S
N642       C2039   1.434       .  S
N642        H645   1.046       .  S
N642        H646   1.045       .  S
C647        C648   1.408       .  A
C647        C652   1.394       .  A
C647        H654   1.084       .  S
C648        C649   1.414       .  A
C649        C650   1.396       .  A
C649        N656   1.433       .  S
C650        C651   1.407       .  A
C650        H655   1.084       .  S
C651        C652   1.412       .  A
C652        N653   1.433       .  S
N653        H657   1.045       .  S
N653        H658   1.044       .  S
N656        H659   1.044       .  S
N656        H660   1.046       .  S
C661        C662   1.397       .  A
C661       C1368   1.387       .  A
C661        H668   1.083       .  S
C662        C663   1.413       .  A
C663        C664   1.396       .  A
C663        N670   1.438       .  S
C664       C1367   1.399   1_545  A
C664        H669   1.084   1_545  S
C665        C666   1.405       .  A
C665       C1366   1.399       .  A
C666       C1363   1.387       .  A
C666        N667   1.433       .  S
N667        H671   1.045       .  S
N667        H672   1.046       .  S
N670        H673   1.042       .  S
N670        H674   1.045       .  S
C675        C676   1.404       .  A
C675       C2084   1.398   1_455  A
C675        H682   1.084       .  S
C676       C2081   1.403   1_455  A
C677        C678   1.396       .  A
C677       C2080   1.402       .  A
C677        N684   1.438       .  S
C678        C679   1.403       .  A
C678        H683   1.076       .  S
C679        C680   1.408       .  A
C680       C2079   1.403       .  A
C680        N681   1.437       .  S
N681        H686   1.045       .  S
N681       H2089   1.046       .  S
N684        H687   1.045       .  S
N684        H688   1.046       .  S
H685       N2085   1.046       .  S
C689        C690   1.404       .  A
C689        C694   1.403       .  A
C689        H696   1.082       .  S
C690        C691   1.415       .  A
C691        C692   1.389       .  A
C691        N698   1.423       .  S
C692        C693   1.387       .  A
C692        H697   1.085       .  S
C693        C694   1.410       .  A
C694        N695   1.432       .  S
N695        H699   1.045       .  S
N695        H700   1.046       .  S
N698        H701   1.046       .  S
N698        H702   1.046       .  S
Zn703       O707   1.944       .  S
Zn703       O708   1.990       .  S
Zn703       O712   2.021       .  S
Zn703       O719   1.987       .  S
Zn704       O707   1.943       .  S
Zn704       O709   2.017       .  S
Zn704       O711   1.987       .  S
Zn704       O715   1.998       .  S
Zn705       O707   1.906       .  S
Zn705       O710   1.917       .  S
Zn705       O713   1.948       .  S
Zn705       O716   1.953       .  S
Zn706       O707   1.938       .  S
Zn706       O714   2.038       .  S
Zn706       O717   1.980       .  S
Zn706       O718   2.004       .  S
O708        C720   1.270       .  A
O709        C721   1.275       .  A
O710        C722   1.260       .  A
O711        C720   1.268       .  A
O712        C722   1.273       .  A
O713        C721   1.263       .  A
O714        C723   1.276       .  A
O715        C724   1.270       .  A
O716        C723   1.265       .  A
O717        C724   1.271       .  A
O718        C725   1.273       .  A
O719        C725   1.271       .  A
C720       C1350   1.481       .  S
C721       C1395   1.457       .  S
C722       C1367   1.444       .  S
C723       C1378   1.463       .  S
C724       C1339   1.484       .  S
C725       C1325   1.479       .  S
Zn726       O731   1.999       .  S
Zn726       O735   2.031       .  S
Zn727      O1432   1.947       .  S
Zn727       O732   2.034       .  S
Zn727      O2138   2.000       .  S
Zn728       O730   1.903       .  S
Zn728      O1438   1.957   1_455  S
Zn728      O2143   1.948   1_445  S
Zn729      O2134   1.937       .  S
Zn729       O737   2.020       .  S
Zn729       O740   1.988       .  S
Zn729      O2145   1.985       .  S
O730      Zn1429   1.941   1_455  S
O730      Zn2133   1.945   1_445  S
O731        C743   1.272       .  A
O732        C744   1.275       .  A
O733        C745   1.265       .  A
O734      Zn2131   1.984   1_455  S
O734        C743   1.269       .  A
O735        C745   1.276       .  A
O736      Zn1430   1.954       .  S
O736        C744   1.265       .  A
O737        C746   1.274       .  A
O738        C747   1.270       .  A
O739      Zn2132   1.937       .  S
O739        C746   1.262       .  A
O740        C747   1.271       .  A
O741      Zn2133   1.991   1_455  S
O741        C748   1.270       .  A
O742        C748   1.272       .  A
C743       C1336   1.481       .  S
C744       C1294   1.460       .  S
C745       C1308   1.465       .  S
C746       C1280   1.454       .  S
C747       C1353   1.482       .  S
C748       C1322   1.478       .  S
C749        H750   1.109       .  S
C749        C755   1.596       .  S
C749        C754   1.598       .  S
C749        C753   1.599       .  S
C751        H752   1.112       .  S
C751        C757   1.513       .  S
C751        C756   1.508       .  S
C751        C758   1.508       .  S
C753        C756   1.378       .  D
C753       C1241   1.522       .  S
C754        C757   1.375       .  D
C754       C1255   1.547       .  S
C755        C758   1.370       .  D
C755       C1266   1.539       .  S
C756       C1210   1.493       .  S
C757       C1196   1.471       .  S
C758       C1227   1.469       .  S
C759        H760   1.109       .  S
C759       C1467   1.591       .  S
C759       C2167   1.595       .  S
C761       H2166   1.113       .  S
C761       C2170   1.514       .  S
C761       C1470   1.508       .  S
H762       C2165   1.113       .  S
C763       C2163   1.597       .  S
C763        C766   1.373       .  D
C763       C1269   1.540       .  S
C764        C767   1.373       .  D
C764       C1252   1.540       .  S
C765       C1461   1.592   1_565  S
C765        C768   1.372       .  D
C765       C1238   1.519       .  S
C766       C2165   1.514       .  S
C766       C1182   1.477       .  S
C767       C1154   1.478       .  S
C768       C1463   1.507   1_565  S
C768       C1171   1.479       .  S
C769        H770   1.107       .  S
C769        C775   1.525       .  S
C769        C774   1.518       .  S
C769        C773   1.525       .  S
C771        H772   1.110       .  S
C771        C777   1.598       .  S
C771        C776   1.596       .  S
C771        C778   1.591       .  S
C773        C776   1.381       .  D
C773       C1101   1.502       .  S
C774        C777   1.377       .  D
C774       C1084   1.481       .  S
C775        C778   1.364       .  D
C775       C1073   1.482       .  S
C776       C1143   1.536       .  S
C777       C1126   1.546       .  S
C778       C1115   1.526       .  S
C779        H780   1.110       .  S
C779        C785   1.520       .  S
C779        C784   1.512       .  S
C779        C783   1.517       .  S
C781        H782   1.110       .  S
C781        C787   1.597       .  S
C781        C786   1.588       .  S
C781        C788   1.595       .  S
C783        C786   1.363       .  D
C783       C1364   1.467       .  S
C784        C787   1.376       .  D
C784       C1381   1.488       .  S
C785        C788   1.380       .  D
C785       C1392   1.491       .  S
C786       C1112   1.529       .  S
C787       C1129   1.530       .  S
C788       C1140   1.535       .  S
Zn789       O793   1.915       .  S
Zn789       O794   2.004       .  S
Zn789       O798   2.055       .  S
Zn789       O805   1.971       .  S
Zn790       O793   1.890       .  S
Zn790       O795   2.053       .  S
Zn790       O797   1.999       .  S
Zn790       O801   2.003       .  S
Zn791       O793   1.843       .  S
Zn791       O796   1.960       .  S
Zn791       O799   1.952       .  S
Zn791       O802   1.948       .  S
Zn792       O793   1.912       .  S
Zn792       O800   2.048       .  S
Zn792       O803   2.008       .  S
Zn792       O804   1.981       .  S
O794        C806   1.272       .  A
O795        C807   1.278       .  A
O796        C808   1.265       .  A
O797        C806   1.277       .  A
O798        C808   1.278       .  A
O799        C807   1.265       .  A
O800        C809   1.278       .  A
O801        C810   1.275       .  A
O802        C809   1.264       .  A
O803        C810   1.273       .  A
O804        C811   1.271       .  A
O805        C811   1.273       .  A
C806       C1098   1.469       .  S
C807       C1042   1.466       .  S
C808       C1059   1.471       .  S
C809       C1031   1.462       .  S
C810       C1087   1.476       .  S
C811       C1070   1.471       .  S
Zn812       O816   1.888       .  S
Zn812      O1519   1.931       .  S
Zn812       O821   1.939   1_655  S
Zn813      O1518   1.938       .  S
Zn813       O820   2.023       .  S
Zn813       O824   2.000       .  S
Zn814       O816   1.936   1_455  S
Zn814       O819   2.031       .  S
Zn814      O2226   1.994   1_455  S
Zn814       O825   1.992       .  S
Zn815      O2230   1.996       .  S
Zn815       O827   2.054       .  S
O816      Zn1515   1.934       .  S
O817      Zn1514   1.937       .  S
O817        C829   1.265       .  A
O818        C830   1.269       .  A
O819        C831   1.275       .  A
O820        C829   1.275       .  A
O821        C831   1.264       .  A
O822      Zn2218   1.990       .  S
O822        C830   1.272       .  A
O823        C832   1.273       .  A
O824        C833   1.273       .  A
O825        C832   1.270       .  A
O826      Zn2219   1.986       .  S
O826        C833   1.268       .  A
O827        C834   1.278       .  A
O828        C834   1.265       .  A
C829       C1199   1.461       .  S
C830       C1028   1.476       .  S
C831       C1224   1.461       .  S
C832       C1056   1.479       .  S
C833       C1045   1.479       .  S
C834       C1213   1.476       .  S
C835        H836   1.109       .  S
C835        C841   1.595       .  S
C835        C840   1.586       .  S
C835        C839   1.595       .  S
C837        H838   1.113       .  S
C837        C843   1.507       .  S
C837        C842   1.510       .  S
C837        C844   1.511       .  S
C839        C842   1.375       .  D
C839       C1014   1.526       .  S
C840        C843   1.369       .  D
C840        C986   1.520       .  S
C841        C844   1.375       .  D
C841       C1000   1.538       .  S
C842       C1311   1.485       .  S
C843       C1297   1.473       .  S
C844       C1283   1.474       .  S
C845        H846   1.109       .  S
C845       C2255   1.595       .  S
C845        C850   1.592       .  S
C847        H848   1.114       .  S
C847        C853   1.506       .  S
C847       C2258   1.511       .  S
C849        C852   1.375       .  D
C849       C1003   1.538       .  S
C850        C853   1.371       .  D
C850        C989   1.520       .  S
C851       C2249   1.591   1_455  S
C851        C854   1.372       .  D
C851       C1017   1.528       .  S
C852        C944   1.479       .  S
C853        C958   1.477       .  S
C854       C2251   1.512   1_455  S
C854        C975   1.479       .  S
Zn855       O859   1.920       .  S
Zn855       O860   2.005       .  S
Zn855       O864   2.024       .  S
Zn855       O871   2.052       .  S
Zn856       O859   1.914       .  S
Zn856       O861   1.994       .  S
Zn856       O863   1.995       .  S
Zn856       O867   2.046       .  S
Zn857       O859   1.905       .  S
Zn857       O862   1.994       .  S
Zn857       O865   2.009       .  S
Zn857       O868   2.060       .  S
Zn858       O859   1.852       .  S
Zn858       O866   1.951       .  S
Zn858       O869   1.952       .  S
Zn858       O870   1.943       .  S
O860        C872   1.276       .  A
O861        C873   1.272       .  A
O862        C874   1.274       .  A
O863        C872   1.274       .  A
O864        C874   1.277       .  A
O865        C873   1.278       .  A
O866        C875   1.264       .  A
O867        C876   1.277       .  A
O868        C875   1.277       .  A
O869        C876   1.265       .  A
O870        C877   1.264       .  A
O871        C877   1.276       .  A
C872       C1157   1.476       .  S
C873       C1168   1.474       .  S
C874       C1185   1.481       .  S
C875        C933   1.479       .  S
C876        C919   1.469       .  S
C877        C902   1.481       .  S
Zn878       O882   1.924       .  S
Zn878       O883   2.020       .  S
Zn878       O887   2.057       .  S
Zn878       O894   2.015       .  S
Zn879       O882   1.911       .  S
Zn879       O884   2.042       .  S
Zn879       O886   2.003       .  S
Zn879       O890   1.992       .  S
Zn880       O882   1.853       .  S
Zn880       O885   1.940       .  S
Zn880       O888   1.948       .  S
Zn880       O891   1.957       .  S
Zn881       O882   1.913       .  S
Zn881       O889   2.061       .  S
Zn881       O892   2.016       .  S
Zn881       O893   1.996       .  S
O883        C895   1.277       .  A
O884        C896   1.276       .  A
O885        C897   1.264       .  A
O886        C895   1.274       .  A
O887        C897   1.278       .  A
O888        C896   1.264       .  A
O889        C898   1.278       .  A
O890        C899   1.274       .  A
O891        C898   1.265       .  A
O892        C899   1.276       .  A
O893        C900   1.275       .  A
O894        C900   1.276       .  A
C895        C972   1.481       .  S
C896        C916   1.474       .  S
C897        C905   1.479       .  S
C898        C930   1.487   1_554  S
C899        C961   1.479       .  S
C900        C947   1.474       .  S
C901        C902   1.410       .  A
C901        C906   1.394       .  A
C901        H908   1.084       .  S
C902        C903   1.414       .  A
C903        C904   1.395       .  A
C903        N910   1.433       .  S
C904        C905   1.410   1_556  A
C904        H909   1.084       .  S
C905        C906   1.411   1_554  A
C906        N907   1.432   1_556  S
N907        H911   1.046       .  S
N907        H912   1.044       .  S
N910        H913   1.046       .  S
N910        H914   1.044       .  S
C915        C916   1.402       .  A
C915        H922   1.084       .  S
C916        C917   1.413   1_554  A
C917        N924   1.434       .  S
C918        C919   1.402   1_545  A
C918        H923   1.084       .  S
C919        C920   1.410       .  A
C920        N921   1.433       .  S
N921        H925   1.046       .  S
N921        H926   1.046       .  S
N924        H927   1.046       .  S
N924        H928   1.046       .  S
C929        C930   1.412       .  A
C929        C934   1.405       .  A
C929        H936   1.083       .  S
C930       C2335   1.406   1_556  A
C931       C2334   1.408   1_455  A
C931        C932   1.400       .  A
C931        N938   1.432   1_556  S
C932        C933   1.406       .  A
C932        H937   1.084       .  S
C933       C2338   1.410   1_455  A
C934       C2337   1.411       .  A
C934        N935   1.438       .  S
N935        H939   1.046       .  S
N935        H940   1.046       .  S
N938        H941   1.046   1_455  S
N938        H942   1.046       .  S
C943        C944   1.403       .  A
C943        C948   1.398       .  A
C943        H950   1.081       .  S
C944        C945   1.414       .  A
C945        C946   1.398       .  A
C945       N2356   1.438       .  S
C946        C947   1.406       .  A
C946        H951   1.084       .  S
C947        C948   1.406       .  A
C948        N949   1.433       .  S
N949        H953   1.046       .  S
N949        H954   1.046       .  S
N952       C2349   1.439   1_455  S
N952        H955   1.043       .  S
N952        H956   1.045       .  S
C957        C958   1.401       .  A
C957        C962   1.398       .  A
C957        H964   1.082       .  S
C958        C959   1.404       .  A
C959        C960   1.400       .  A
C959        N966   1.432       .  S
C960        C961   1.409       .  A
C960        H965   1.084       .  S
C961        C962   1.410       .  A
C962        N963   1.432       .  S
N963        H967   1.046       .  S
N963        H968   1.046       .  S
N966        H969   1.045       .  S
N966        H970   1.045       .  S
C971        C972   1.407       .  A
C971        C976   1.405       .  A
C971        H978   1.083       .  S
C972        C973   1.412       .  A
C973        C974   1.399       .  A
C973        N980   1.433       .  S
C974        C975   1.399       .  A
C974        H979   1.082       .  S
C975        C976   1.408       .  A
C976        N977   1.438       .  S
N977        H981   1.044       .  S
N977        H982   1.045       .  S
N980        H983   1.045       .  S
N980        H984   1.046       .  S
C985        C986   1.416       .  A
C985        C990   1.414       .  A
C985        H992   1.084       .  S
C986        C987   1.411       .  A
C987        C988   1.420       .  A
C987        N994   1.437       .  S
C988        C989   1.416       .  A
C988       H2397   1.083       .  S
C989        C990   1.414       .  A
C990        N991   1.432       .  S
H993       C2392   1.083       .  S
N994        H997   1.045       .  S
N994       H2402   1.045       .  S
H998       N2398   1.045       .  S
C999       C1000   1.419       .  A
C999       C1004   1.420       .  A
C999       H1006   1.083       .  S
C1000      C1001   1.414       .  A
C1001      C1002   1.428       .  A
C1001      N1008   1.436       .  S
C1002      C1003   1.420       .  A
C1002      H1007   1.083       .  S
C1003      C1004   1.416       .  A
C1004      N1005   1.432       .  S
N1005      H2413   1.045       .  S
N1005      H2414   1.044       .  S
N1008      H1011   1.045       .  S
N1008      H1012   1.045       .  S
H1009      N2409   1.046       .  S
H1010      N2409   1.041       .  S
C1013      C1014   1.415       .  A
C1013      C1018   1.418       .  A
C1013      H1020   1.084       .  S
C1014      C1015   1.421       .  A
C1015      C1016   1.418       .  A
C1015      N1022   1.437       .  S
C1016      C1017   1.416       .  A
C1016      H1021   1.084       .  S
C1017      C1018   1.421       .  A
C1018      N1019   1.437       .  S
N1019      H1023   1.047       .  S
N1019      H1024   1.039       .  S
N1022      H1025   1.040       .  S
N1022      H1026   1.046       .  S
C1027      C1028   1.407       .  A
C1027      C1032   1.396       .  A
C1027      H1034   1.084       .  S
C1028      C1029   1.417       .  A
C1029      C1030   1.397       .  A
C1029      N1036   1.433       .  S
C1030      C1031   1.403       .  A
C1030      H1035   1.084       .  S
C1031      C1032   1.404       .  A
C1032      N1033   1.433       .  S
N1033      H1037   1.045       .  S
N1033      H1038   1.046       .  S
N1036      H1039   1.046       .  S
N1036      H1040   1.044       .  S
C1041      C1042   1.403       .  A
C1041      C1046   1.397       .  A
C1041      H1048   1.084       .  S
C1042      C1043   1.407       .  A
C1043      C1044   1.401       .  A
C1043      N1050   1.438       .  S
C1044      C1045   1.407       .  A
C1044      H1049   1.084       .  S
C1045      C1046   1.417       .  A
C1046      N2451   1.433       .  S
N1047      C2450   1.432       .  S
N1047      H1051   1.045       .  S
N1047      H1052   1.045   1_655  S
N1050      H1053   1.045       .  S
N1050      H1054   1.046       .  S
C1055      C1056   1.407       .  A
C1055      C1060   1.400       .  A
C1055      H1062   1.084       .  S
C1056      C1057   1.417       .  A
C1057      C1058   1.398       .  A
C1057      N1064   1.433       .  S
C1058      C1059   1.404       .  A
C1058      H1063   1.084       .  S
C1059      C1060   1.406       .  A
C1060      N1061   1.433       .  S
N1061      H1066   1.046       .  S
N1064      H1067   1.045       .  S
N1064      H1068   1.044       .  S
C1069      C1074   1.396   1_545  A
C1071      C1072   1.401       .  A
C1072      C1073   1.395       .  A
C1072      H1077   1.082       .  S
C1073      C1074   1.403       .  A
C1074      N1075   1.431       .  S
N1075      H1079   1.045   1_565  S
N1075      H1080   1.044       .  S
N1078      H1081   1.045       .  S
N1078      H1082   1.045       .  S
C1083      C1084   1.401       .  A
C1083      C1088   1.399       .  A
C1083      H1090   1.084       .  S
C1084      C1085   1.415       .  A
C1085      C2490   1.384       .  A
C1085      N1092   1.425       .  S
C1086      C2489   1.390       .  A
C1086      C1087   1.396       .  A
C1086      H1091   1.085       .  S
C1087      C2492   1.418       .  A
C1088      C2491   1.418   1_455  A
C1088      N1089   1.432   1_455  S
N1089      H1093   1.045       .  S
N1089      H2498   1.045       .  S
N1092      H1095   1.036       .  S
N1092      H1096   1.041       .  S
H1094      N2493   1.044       .  S
C1097      C1098   1.387       .  A
C1097      C1102   1.389       .  A
C1097      H1104   1.085       .  S
C1098      C1099   1.411       .  A
C1099      C1100   1.410       .  A
C1099      N1106   1.432       .  S
C1100      C1101   1.408       .  A
C1100      H1105   1.082       .  S
C1101      C1102   1.416       .  A
C1102      N1103   1.421       .  S
N1103      H1107   1.046       .  S
N1103      H1108   1.046       .  S
N1106      H1109   1.046       .  S
N1106      H1110   1.046       .  S
C1111      C1112   1.414       .  A
C1111      H1118   1.081       .  S
C1112      C1113   1.411       .  A
C1113      N1120   1.431       .  S
C1114      C1115   1.417       .  A
C1114      H1119   1.083       .  S
C1115      C1116   1.419       .  A
C1116      N1117   1.436       .  S
N1117      H1121   1.045       .  S
N1117      H1122   1.044       .  S
N1120      H1123   1.045       .  S
N1120      H1124   1.046       .  S
C1125      C1126   1.410       .  A
C1125      C2534   1.429   1_455  A
C1125      H1132   1.083       .  S
C1126      C1127   1.434       .  A
C1127      C2532   1.423   1_455  A
C1127      N1134   1.434       .  S
C1128      C2531   1.419       .  A
C1128      C1129   1.403       .  A
C1128      H1133   1.083       .  S
C1129      C1130   1.423       .  A
C1130      C2529   1.423       .  A
C1130      N1131   1.432       .  S
N1131      H1135   1.045       .  S
N1131      H1136   1.046       .  S
N1134      H1137   1.041       .  S
N1134      H1138   1.045       .  S
C1139      C1140   1.407       .  A
C1139      C1144   1.422       .  A
C1139      H1146   1.083       .  S
C1140      C1141   1.431       .  A
C1141      C1142   1.423       .  A
C1141      N1148   1.437       .  S
C1142      C1143   1.407       .  A
C1142      H1147   1.083       .  S
C1143      C1144   1.431       .  A
C1144      N1145   1.438       .  S
N1145      H1149   1.045       .  S
N1145      H1150   1.043       .  S
N1148      H1151   1.043       .  S
N1148      H1152   1.045       .  S
C1153      C1154   1.400       .  A
C1153      C1158   1.399       .  A
C1154      C1155   1.416       .  A
C1155      C1156   1.396       .  A
C1155      N1162   1.437       .  S
C1156      C1157   1.405       .  A
C1156      H1161   1.084       .  S
C1157      C1158   1.413       .  A
C1158      N1159   1.438   1_565  S
N1159      H1164   1.045       .  S
N1162      H1165   1.041       .  S
N1162      H1166   1.045       .  S
C1167      C1168   1.397       .  A
C1167      C1172   1.391       .  A
C1167      H1174   1.084       .  S
C1168      C1169   1.416       .  A
C1169      C1170   1.405       .  A
C1169      N1176   1.432       .  S
C1170      C1171   1.400       .  A
C1171      C1172   1.408       .  A
C1172      N2577   1.427   1_455  S
N1173      C2576   1.426       .  S
N1173      H1177   1.046       .  S
N1173      H1178   1.046       .  S
N1176      H1179   1.046   1_565  S
C1181      C1182   1.402       .  A
C1181      C1186   1.404       .  A
C1181      H1188   1.084       .  S
C1182      C1183   1.401       .  A
C1183      C1184   1.398       .  A
C1183      N2594   1.432   1_455  S
C1184      C1185   1.409       .  A
C1184      H1189   1.084       .  S
C1185      C1186   1.414       .  A
C1186      N1187   1.438       .  S
N1187      H1191   1.046       .  S
N1187      H1192   1.046       .  S
N1190      C2587   1.432       .  S
N1190      H1193   1.045       .  S
N1190      H1194   1.046       .  S
C1195      C1196   1.401       .  A
C1195      C1200   1.396       .  A
C1195      H1202   1.085       .  S
C1196      C1197   1.403       .  A
C1197      C1198   1.393       .  A
C1197      N1204   1.432       .  S
C1198      C1199   1.404       .  A
C1198      H1203   1.085       .  S
C1199      C1200   1.417       .  A
C1200      N1201   1.440       .  S
N1201      H1205   1.046       .  S
N1201      H1206   1.040       .  S
N1204      H1207   1.045       .  S
N1204      H1208   1.045       .  S
C1209      C1210   1.401       .  A
C1209      C1214   1.407       .  A
C1209      H1216   1.083       .  S
C1210      C1211   1.415       .  A
C1211      C1212   1.398       .  A
C1211      N1218   1.430       .  S
C1212      C1213   1.395       .  A
C1212      H1217   1.084       .  S
C1213      C1214   1.417       .  A
C1214      N1215   1.438   1_455  S
N1215      H1219   1.046       .  S
N1215      H1220   1.045       .  S
N1218      H1221   1.045       .  S
N1218      H1222   1.046       .  S
C1223      C1224   1.405       .  A
C1223      C1228   1.397       .  A
C1223      H1230   1.084       .  S
C1224      C1225   1.406       .  A
C1225      C1226   1.399       .  A
C1225      N1232   1.438       .  S
C1226      C1227   1.404       .  A
C1226      H1231   1.084       .  S
C1227      C1228   1.401       .  A
C1228      N1229   1.432       .  S
N1229      H1233   1.045       .  S
N1229      H1234   1.046       .  S
N1232      H2639   1.045       .  S
N1232      H2640   1.046       .  S
H1235      N2636   1.046       .  S
H1236      N2636   1.045       .  S
C1237      C1238   1.404       .  A
C1237      C1242   1.416       .  A
C1238      C1239   1.419       .  A
C1239      C1240   1.418       .  A
C1239      N1246   1.431   1_455  S
C1240      C1241   1.405       .  A
C1240      H1245   1.083       .  S
C1241      C1242   1.428       .  A
C1242      N1243   1.433       .  S
N1243      H1247   1.039       .  S
N1243      H1248   1.043       .  S
N1246      H2653   1.045       .  S
N1246      H1250   1.045       .  S
H1249      N2650   1.046       .  S
C1251      C1252   1.416       .  A
C1251      C1256   1.422       .  A
C1252      C1253   1.414       .  A
C1253      C1254   1.429       .  A
C1253      N1260   1.436       .  S
C1254      C1255   1.423       .  A
C1254      H1259   1.083       .  S
C1255      C1256   1.425       .  A
C1256      N1257   1.435       .  S
N1257      H1262   1.038       .  S
N1260      H1263   1.045       .  S
N1260      H1264   1.046       .  S
C1265      C1266   1.407       .  A
C1265      C1270   1.428       .  A
C1265      H1272   1.083       .  S
C1266      C1267   1.426       .  A
C1267      C1268   1.429       .  A
C1267      N1274   1.437       .  S
C1268      C1269   1.408       .  A
C1268      H1273   1.083   1_455  S
C1269      C1270   1.426       .  A
C1270      N1271   1.437       .  S
N1271      H1275   1.046       .  S
N1271      H1276   1.045       .  S
N1274      H1277   1.045       .  S
N1274      H1278   1.045   1_455  S
C1279      C1280   1.402       .  A
C1279      C1284   1.395       .  A
C1279      H1286   1.084       .  S
C1280      C1281   1.402       .  A
C1281      C1282   1.394       .  A
C1281      N1288   1.439       .  S
C1282      C1283   1.404       .  A
C1282      H1287   1.080       .  S
C1283      C1284   1.415       .  A
C1284      N1285   1.438       .  S
N1285      H1289   1.046       .  S
N1285      H1290   1.042       .  S
N1288      H1291   1.046       .  S
N1288      H1292   1.046       .  S
C1293      C1294   1.402       .  A
C1293      C1298   1.393       .  A
C1293      H1300   1.085       .  S
C1294      C1295   1.415       .  A
C1295      C1296   1.398       .  A
C1296      C1297   1.402       .  A
C1296      H1301   1.085       .  S
C1297      C1298   1.410       .  A
C1298      N1299   1.433       .  S
N1299      H1303   1.045       .  S
N1299      H1304   1.039       .  S
N1302      H1305   1.042       .  S
N1302      H1306   1.045   1_545  S
C1307      C1308   1.394       .  A
C1307      C1312   1.393       .  A
C1307      H1314   1.084       .  S
C1308      C1309   1.413       .  A
C1309      C1310   1.406       .  A
C1310      C1311   1.403       .  A
C1310      H1315   1.083       .  S
C1311      C1312   1.410       .  A
C1312      N1313   1.430       .  S
N1313      H1317   1.045       .  S
N1313      H1318   1.046       .  S
N1316      H1319   1.046       .  S
N1316      H1320   1.046       .  S
C1321      C1322   1.406       .  A
C1321      C1326   1.399       .  A
C1321      H1328   1.084   1_565  S
C1322      C1323   1.410       .  A
C1323      C1324   1.402       .  A
C1323      N2734   1.433       .  S
C1324      C1325   1.407       .  A
C1324      H1329   1.084       .  S
C1325      C1326   1.409       .  A
C1326      N1327   1.433       .  S
N1327      H1331   1.046   1_565  S
N1327      H1332   1.046   1_565  S
N1330      C2727   1.433       .  S
N1330      H1333   1.046       .  S
N1330      H1334   1.046       .  S
C1335      C1336   1.408       .  A
C1335      C1340   1.398       .  A
C1335      H1342   1.084       .  S
C1336      C1337   1.415       .  A
C1337      C1338   1.392       .  A
C1337      N2748   1.434       .  S
C1338      C1339   1.408       .  A
C1338      H1343   1.084       .  S
C1339      C1340   1.418       .  A
C1340      N1341   1.433       .  S
N1341      H1345   1.045       .  S
N1341      H1346   1.045       .  S
N1344      C2741   1.433       .  S
N1344      H1347   1.046       .  S
N1344      H1348   1.045       .  S
C1349      C1350   1.408       .  A
C1349      C1354   1.396       .  A
C1349      H1356   1.084       .  S
C1350      C1351   1.415       .  A
C1351      C1352   1.394       .  A
C1351      N1358   1.433       .  S
C1352      C1353   1.408       .  A
C1352      H1357   1.084       .  S
C1353      C1354   1.416       .  A
C1354      N1355   1.433       .  S
N1355      H1359   1.046       .  S
N1355      H1360   1.044   1_565  S
N1358      H1361   1.043       .  S
N1358      H1362   1.047       .  S
C1363      C1364   1.398       .  A
C1363      H1370   1.083       .  S
C1364      C1365   1.412       .  A
C1365      C1366   1.395       .  A
C1365      N1372   1.438       .  S
C1366      H1371   1.084       .  S
C1367      C1368   1.404   1_565  A
C1368      N1369   1.433   1_545  S
N1369      H1373   1.045       .  S
N1369      H1374   1.046   1_565  S
N1372      H1375   1.043       .  S
N1372      H1376   1.044       .  S
C1377      C1378   1.403       .  A
C1377      C2786   1.402   1_455  A
C1377      H1384   1.084       .  S
C1378      C2783   1.403   1_455  A
C1379      C2782   1.405       .  A
C1379      C1380   1.399       .  A
C1379      N1386   1.438       .  S
C1380      C1381   1.403       .  A
C1380      H1385   1.075       .  S
C1381      C1382   1.410       .  A
C1382      C2781   1.405       .  A
C1382      N1383   1.436       .  S
N1383      H2791   1.046       .  S
N1383      H1388   1.046       .  S
N1386      H1389   1.045       .  S
N1386      H1390   1.046       .  S
H1387      N2787   1.045       .  S
C1391      C1392   1.405       .  A
C1391      C1396   1.404       .  A
C1391      H1398   1.082       .  S
C1392      C1393   1.415       .  A
C1393      C1394   1.388       .  A
C1393      N1400   1.422       .  S
C1394      C1395   1.386       .  A
C1394      H1399   1.085       .  S
C1395      C1396   1.409       .  A
C1396      N1397   1.432       .  S
N1397      H1401   1.045       .  S
N1397      H1402   1.046       .  S
N1400      H1403   1.046       .  S
N1400      H1404   1.046       .  S
Zn1405     O1409   1.949       .  S
Zn1405     O1410   1.994       .  S
Zn1405     O1414   2.023       .  S
Zn1405     O1421   1.995       .  S
Zn1406     O1409   1.944       .  S
Zn1406     O1411   2.031       .  S
Zn1406     O1413   1.999       .  S
Zn1406     O1417   1.999       .  S
Zn1407     O1409   1.907       .  S
Zn1407     O1412   1.944       .  S
Zn1407     O1415   1.954       .  S
Zn1407     O1418   1.943       .  S
Zn1408     O1409   1.942       .  S
Zn1408     O1416   2.035       .  S
Zn1408     O1419   1.994       .  S
Zn1408     O1420   1.992       .  S
O1410      C1422   1.271       .  A
O1411      C1423   1.276       .  A
O1412      C1424   1.263       .  A
O1413      C1422   1.270       .  A
O1414      C1424   1.274       .  A
O1415      C1423   1.266       .  A
O1416      C1425   1.275       .  A
O1417      C1426   1.271       .  A
O1418      C1425   1.263       .  A
O1419      C1426   1.272       .  A
O1420      C1427   1.272       .  A
O1421      C1427   1.271       .  A
C1422      C2052   1.481       .  S
C1423      C2097   1.463       .  S
C1424      C2069   1.451       .  S
C1425      C2080   1.460       .  S
C1426      C2041   1.479       .  S
C1427      C2027   1.485       .  S
Zn1428     O2134   1.937   1_545  S
Zn1428     O1433   1.996       .  S
Zn1428     O1437   2.028       .  S
Zn1428     O2146   1.995   1_545  S
Zn1429     O1434   2.020       .  S
Zn1429     O2142   1.986       .  S
Zn1430     O1432   1.907       .  S
Zn1430     O2137   1.959       .  S
Zn1431     O1439   2.023       .  S
Zn1431     O1442   1.992       .  S
O1432     Zn2130   1.943       .  S
O1433      C1445   1.272       .  A
O1434      C1446   1.273       .  A
O1435     Zn2132   1.949   1_545  S
O1435      C1447   1.264       .  A
O1436      C1445   1.270       .  A
O1437      C1447   1.275       .  A
O1438      C1446   1.265       .  A
O1439      C1448   1.274       .  A
O1440     Zn2131   2.005       .  S
O1440      C1449   1.271       .  A
O1441      C1448   1.263       .  A
O1442      C1449   1.272       .  A
O1443      C1450   1.269       .  A
O1444     Zn2130   1.997       .  S
O1444      C1450   1.272       .  A
C1445      C2038   1.478       .  S
C1446      C1996   1.459       .  S
C1447      C2010   1.460       .  S
C1448      C1982   1.457       .  S
C1449      C2055   1.480       .  S
C1450      C2024   1.483       .  S
C1451      H1452   1.109       .  S
C1451      C1457   1.598       .  S
C1451      C1456   1.601       .  S
C1451      C1455   1.601       .  S
C1453      H1454   1.113       .  S
C1453      C1459   1.516       .  S
C1453      C1458   1.507       .  S
C1453      C1460   1.507       .  S
C1455      C1458   1.375       .  D
C1455      C1943   1.526       .  S
C1456      C1459   1.377       .  D
C1456      C1957   1.550       .  S
C1457      C1460   1.369       .  D
C1457      C1968   1.539       .  S
C1458      C1912   1.488       .  S
C1459      C1898   1.475       .  S
C1460      C1929   1.472       .  S
C1461      H1462   1.109       .  S
C1461      C2168   1.594   1_445  S
C1463      C2171   1.512   1_445  S
C1465      C1468   1.372       .  D
C1465      C1971   1.540       .  S
C1466      C2163   1.597   1_655  S
C1466      C1469   1.374       .  D
C1466      C1954   1.542       .  S
C1467      C1470   1.371       .  D
C1467      C1940   1.519       .  S
C1468      C1884   1.479       .  S
C1469      C2165   1.517   1_655  S
C1469      C1856   1.477       .  S
C1470      C1873   1.479       .  S
C1471      H1472   1.112       .  S
C1471      C1477   1.517       .  S
C1471      C1476   1.512       .  S
C1471      C1475   1.511       .  S
C1473      H1474   1.110       .  S
C1473      C1479   1.599       .  S
C1473      C1478   1.595       .  S
C1473      C1480   1.594       .  S
C1475      C1478   1.369       .  D
C1475      C1803   1.471       .  S
C1476      C1479   1.377       .  D
C1476      C1786   1.488       .  S
C1477      C1480   1.371       .  D
C1477      C1775   1.473       .  S
C1478      C1845   1.537       .  S
C1479      C1828   1.533       .  S
C1480      C1817   1.535       .  S
C1481      H1482   1.114       .  S
C1481      C1487   1.507       .  S
C1481      C1486   1.506       .  S
C1481      C1485   1.500       .  S
C1483      H1484   1.109       .  S
C1483      C1489   1.595       .  S
C1483      C1488   1.594       .  S
C1483      C1490   1.595       .  S
C1485      C1488   1.370       .  D
C1485      C2066   1.466       .  S
C1486      C1489   1.372       .  D
C1486      C2083   1.470       .  S
C1487      C1490   1.375       .  D
C1487      C2094   1.478       .  S
C1488      C1814   1.526       .  S
C1489      C1831   1.529       .  S
C1490      C1842   1.529       .  S
Zn1491     O1495   1.918       .  S
Zn1491     O1496   2.002       .  S
Zn1491     O1500   2.066       .  S
Zn1491     O1507   1.997       .  S
Zn1492     O1495   1.906       .  S
Zn1492     O1497   2.048       .  S
Zn1492     O1499   1.999       .  S
Zn1492     O1503   2.000       .  S
Zn1493     O1495   1.841       .  S
Zn1493     O1498   1.951       .  S
Zn1493     O1501   1.938       .  S
Zn1493     O1504   1.957       .  S
Zn1494     O1495   1.910       .  S
Zn1494     O1502   2.058       .  S
Zn1494     O1505   2.015       .  S
Zn1494     O1506   1.992       .  S
O1496      C1508   1.274       .  A
O1497      C1509   1.277       .  A
O1498      C1510   1.264       .  A
O1499      C1508   1.276       .  A
O1500      C1510   1.278       .  A
O1501      C1509   1.265       .  A
O1502      C1511   1.280       .  A
O1503      C1512   1.275       .  A
O1504      C1511   1.266       .  A
O1505      C1512   1.274       .  A
O1506      C1513   1.273       .  A
O1507      C1513   1.275       .  A
C1508      C1800   1.477       .  S
C1509      C1744   1.469       .  S
C1510      C1761   1.475       .  S
C1511      C1733   1.475       .  S
C1512      C1789   1.478       .  S
C1513      C1772   1.479       .  S
Zn1514     O1518   1.897       .  S
Zn1514     O1523   1.961   1_565  S
Zn1514     O2232   1.938       .  S
Zn1515     O2222   1.983       .  S
Zn1515     O1522   2.025       .  S
Zn1515     O1526   1.986       .  S
Zn1516     O1518   1.929   1_545  S
Zn1516     O1521   2.032       .  S
Zn1516     O1527   1.980       .  S
Zn1517     O2220   1.943       .  S
Zn1517     O2227   2.011       .  S
Zn1517     O1529   2.040       .  S
O1518     Zn2219   1.944       .  S
O1519      C1531   1.263       .  A
O1520     Zn2217   2.007       .  S
O1520      C1532   1.270   1_565  A
O1521      C1533   1.275       .  A
O1522      C1531   1.274       .  A
O1523      C1533   1.266       .  A
O1524      C1532   1.272       .  A
O1525     Zn2219   2.005   1_545  S
O1525      C1534   1.274       .  A
O1526      C1535   1.271       .  A
O1527      C1534   1.269       .  A
O1528      C1535   1.268   1_455  A
O1529      C1536   1.278       .  A
O1530     Zn2216   1.955       .  S
O1530      C1536   1.265       .  A
C1531      C1901   1.460       .  S
C1532      C1730   1.472       .  S
C1533      C1926   1.464       .  S
C1534      C1758   1.476       .  S
C1535      C1747   1.467       .  S
C1536      C1915   1.469       .  S
C1537      H1538   1.109       .  S
C1537      C1543   1.597       .  S
C1537      C1542   1.590       .  S
C1537      C1541   1.596       .  S
C1539      H1540   1.113       .  S
C1539      C1545   1.510       .  S
C1539      C1544   1.508       .  S
C1539      C1546   1.507       .  S
C1541      C1544   1.372       .  D
C1541      C1716   1.533       .  S
C1542      C1545   1.371       .  D
C1542      C1688   1.530       .  S
C1543      C1546   1.374       .  D
C1543      C1702   1.530       .  S
C1544      C2013   1.476       .  S
C1545      C1999   1.470       .  S
C1546      C1985   1.479       .  S
C1547      H1548   1.109       .  S
C1547      C1552   1.593   1_455  S
C1547      C2253   1.596   1_445  S
C1549      H1550   1.113       .  S
C1549      C1555   1.512   1_455  S
C1549      C2256   1.513   1_445  S
C1551      C2249   1.590       .  S
C1551      C1554   1.369       .  D
C1551      C1705   1.534       .  S
C1552      C1555   1.375       .  D
C1552      C1691   1.532       .  S
C1553      C1556   1.374       .  D
C1553      C1719   1.535       .  S
C1554      C2251   1.512       .  S
C1554      C1646   1.469       .  S
C1555      C1660   1.477       .  S
C1556      C1677   1.477       .  S
Zn1557     O1561   1.907       .  S
Zn1557     O1562   2.004       .  S
Zn1557     O1566   2.021       .  S
Zn1557     O1573   2.065       .  S
Zn1558     O1561   1.915       .  S
Zn1558     O1563   1.999       .  S
Zn1558     O1565   1.995       .  S
Zn1558     O1569   2.060       .  S
Zn1559     O1561   1.902       .  S
Zn1559     O1564   2.010       .  S
Zn1559     O1567   2.015       .  S
Zn1559     O1570   2.050       .  S
Zn1560     O1561   1.852       .  S
Zn1560     O1568   1.948       .  S
Zn1560     O1571   1.950       .  S
Zn1560     O1572   1.952       .  S
O1562      C1574   1.277       .  A
O1563      C1575   1.273       .  A
O1564      C1576   1.276       .  A
O1565      C1574   1.275       .  A
O1566      C1576   1.277       .  A
O1567      C1575   1.278       .  A
O1568      C1577   1.264       .  A
O1569      C1578   1.277       .  A
O1570      C1577   1.278       .  A
O1571      C1578   1.262       .  A
O1572      C1579   1.264       .  A
O1573      C1579   1.279       .  A
C1574      C1859   1.473       .  S
C1575      C1870   1.479       .  S
C1576      C1887   1.484       .  S
C1577      C1635   1.479       .  S
C1578      C1621   1.479       .  S
C1579      C1604   1.478       .  S
Zn1580     O1584   1.912       .  S
Zn1580     O1585   1.994       .  S
Zn1580     O1589   2.071       .  S
Zn1580     O1596   2.013       .  S
Zn1581     O1584   1.903       .  S
Zn1581     O1586   2.052       .  S
Zn1581     O1588   2.006       .  S
Zn1581     O1592   1.993       .  S
Zn1582     O1584   1.842       .  S
Zn1582     O1587   1.941       .  S
Zn1582     O1590   1.949       .  S
Zn1582     O1593   1.942       .  S
Zn1583     O1584   1.910       .  S
Zn1583     O1591   2.059       .  S
Zn1583     O1594   2.018       .  S
Zn1583     O1595   1.995       .  S
O1585      C1597   1.275       .  A
O1586      C1598   1.278       .  A
O1587      C1599   1.263       .  A
O1588      C1597   1.276       .  A
O1589      C1599   1.278       .  A
O1590      C1598   1.264       .  A
O1591      C1600   1.278       .  A
O1592      C1601   1.274       .  A
O1593      C1600   1.264       .  A
O1594      C1601   1.277       .  A
O1595      C1602   1.275       .  A
O1596      C1602   1.277       .  A
C1597      C1674   1.474       .  S
C1598      C1618   1.482       .  S
C1599      C1607   1.481       .  S
C1600      C1632   1.482   1_554  S
C1601      C1663   1.477       .  S
C1602      C1649   1.478       .  S
C1603      C1604   1.409       .  A
C1603      C1608   1.401       .  A
C1603      H1610   1.084       .  S
C1604      C1605   1.412       .  A
C1605      C1606   1.394       .  A
C1605      N1612   1.432       .  S
C1606      C1607   1.407   1_556  A
C1606      H1611   1.084       .  S
C1607      C1608   1.415   1_554  A
C1608      N1609   1.432   1_556  S
N1609      H1613   1.045       .  S
N1609      H1614   1.046       .  S
N1612      H1615   1.044       .  S
N1612      H1616   1.046       .  S
C1617      C1618   1.403   1_566  A
C1617      C2324   1.401       .  A
C1617      H1624   1.084   1_556  S
C1618      C1619   1.417   1_554  A
C1619      C2322   1.400       .  A
C1619      N1626   1.434       .  S
C1620      C2321   1.401       .  A
C1620      C1621   1.399       .  A
C1620      H1625   1.084       .  S
C1621      C1622   1.419       .  A
C1622      C2319   1.399   1_556  A
C1622      N1623   1.434       .  S
N1623      H1627   1.046       .  S
N1623      H1628   1.046       .  S
N1626      H1629   1.046       .  S
N1626      H1630   1.046       .  S
C1631      C1632   1.412       .  A
C1631      C1636   1.400       .  A
C1631      H1638   1.084       .  S
C1633      C1634   1.402   1_554  A
C1633      N1640   1.433       .  S
C1634      C1635   1.409       .  A
C1634      H1639   1.084       .  S
C1636      N1637   1.432       .  S
N1637      H1641   1.046       .  S
N1637      H1642   1.046       .  S
N1640      H1643   1.046       .  S
N1640      H1644   1.046       .  S
C1645      C1646   1.399       .  A
C1645      C1650   1.396       .  A
C1645      H1652   1.084       .  S
C1646      C1647   1.412       .  A
C1647      C1648   1.398       .  A
C1648      C1649   1.409       .  A
C1648      H1653   1.084       .  S
C1649      C1650   1.410       .  A
C1650      N1651   1.432       .  S
N1651      H1655   1.046       .  S
N1651      H1656   1.046       .  S
N1654      H1657   1.041       .  S
N1654      H1658   1.046       .  S
C1659      C1660   1.403       .  A
C1659      C1664   1.402       .  A
C1659      H1666   1.082   1_655  S
C1660      C1661   1.402       .  A
C1661      C1662   1.398       .  A
C1661      N1668   1.432   1_545  S
C1662      C1663   1.408       .  A
C1662      H1667   1.084       .  S
C1663      C1664   1.411       .  A
C1664      N1665   1.438   1_655  S
N1665      H1669   1.046       .  S
N1665      H1670   1.046       .  S
N1668      H1671   1.045       .  S
N1668      H1672   1.046   1_565  S
C1673      C1674   1.407       .  A
C1673      C1678   1.402       .  A
C1673      H1680   1.084       .  S
C1674      C1675   1.407       .  A
C1675      C1676   1.397       .  A
C1675      N1682   1.432   1_545  S
C1676      C1677   1.402       .  A
C1676      H1681   1.084   1_545  S
C1677      C1678   1.409       .  A
C1678      N1679   1.437       .  S
N1679      H1683   1.043       .  S
N1679      H1684   1.046       .  S
N1682      H1685   1.046       .  S
N1682      H1686   1.045       .  S
C1687      C1688   1.417       .  A
C1687      C1692   1.416       .  A
C1687      H1694   1.083       .  S
C1688      C1689   1.412       .  A
C1689      C1690   1.425       .  A
C1689      N1696   1.436       .  S
C1690      C1691   1.419       .  A
C1691      C1692   1.415       .  A
C1692      N1693   1.432   1_545  S
N1693      H2399   1.045       .  S
N1693      H2400   1.045       .  S
N1696      H1699   1.045       .  S
H1697      N2395   1.045       .  S
H1698      N2395   1.045       .  S
C1701      C1702   1.415       .  A
C1701      C1706   1.421       .  A
C1701      H1708   1.084       .  S
C1702      C1703   1.412       .  A
C1703      C1704   1.425       .  A
C1703      N1710   1.437       .  S
C1704      C1705   1.418       .  A
C1704      H1709   1.083       .  S
C1705      C1706   1.422       .  A
C1706      N1707   1.437   1_655  S
N1710      H1713   1.045       .  S
N1710      H1714   1.045       .  S
C1715      C1716   1.417       .  A
C1715      C1720   1.421       .  A
C1715      H1722   1.084       .  S
C1716      C1717   1.422       .  A
C1717      C1718   1.420       .  A
C1717      N1724   1.437       .  S
C1718      C1719   1.417       .  A
C1718      H1723   1.084   1_545  S
C1719      C1720   1.423       .  A
C1720      N1721   1.437       .  S
N1721      H1725   1.046       .  S
N1721      H1726   1.040       .  S
N1724      H1727   1.037       .  S
N1724      H1728   1.048       .  S
C1729      C1730   1.405       .  A
C1729      C1734   1.399       .  A
C1729      H1736   1.085       .  S
C1730      C1731   1.410       .  A
C1731      C1732   1.400       .  A
C1731      N1738   1.432   1_545  S
C1732      C1733   1.409       .  A
C1732      H1737   1.084       .  S
C1733      C1734   1.407       .  A
C1734      N1735   1.433       .  S
N1735      H1739   1.046       .  S
N1735      H1740   1.046       .  S
N1738      H1741   1.045   1_565  S
N1738      H1742   1.045       .  S
C1743      C1744   1.407       .  A
C1743      C1748   1.394       .  A
C1743      H1750   1.084       .  S
C1744      C1745   1.408       .  A
C1745      C1746   1.401       .  A
C1745      N1752   1.438       .  S
C1746      C1747   1.405       .  A
C1746      H1751   1.084       .  S
C1747      C1748   1.409       .  A
N1749      H1753   1.046       .  S
N1749      H1754   1.044       .  S
N1752      H1755   1.045       .  S
N1752      H1756   1.046       .  S
C1757      C1758   1.407       .  A
C1757      C1762   1.405       .  A
C1757      H1764   1.084       .  S
C1758      C1759   1.413       .  A
C1759      C1760   1.394       .  A
C1759      N1766   1.433       .  S
C1760      C1761   1.405       .  A
C1760      H1765   1.084       .  S
C1761      C1762   1.411       .  A
C1762      N1763   1.438       .  S
N1763      H2469   1.046   1_545  S
N1763      H1768   1.046       .  S
N1766      H1769   1.046       .  S
N1766      H1770   1.044       .  S
H1767      N2465   1.046       .  S
C1771      C2474   1.402       .  A
C1771      C1776   1.391       .  A
C1771      H2480   1.084       .  S
C1772      C2473   1.408       .  A
C1772      C2475   1.416   1_545  A
C1773      C2474   1.404       .  A
C1773      C1774   1.396       .  A
C1773      N2482   1.432       .  S
C1774      C1775   1.403       .  A
C1774      H1779   1.080       .  S
C1775      C1776   1.406       .  A
C1776      N1777   1.431       .  S
N1777      H1781   1.045       .  S
N1777      H1782   1.045       .  S
H1778      C2473   1.084       .  S
N1780      C2475   1.438   1_545  S
N1780      H1783   1.046       .  S
N1780      H1784   1.045   1_545  S
C1785      C1786   1.403       .  A
C1785      C1790   1.401       .  A
C1785      H1792   1.083       .  S
C1786      C1787   1.418       .  A
C1787      N1794   1.428       .  S
C1788      C1789   1.398   1_455  A
C1788      H1793   1.084       .  S
C1790      N1791   1.432       .  S
N1791      H1795   1.046       .  S
N1794      H1797   1.037       .  S
N1794      H1798   1.042       .  S
C1799      C1800   1.408       .  A
C1799      C1804   1.398       .  A
C1799      H1806   1.084       .  S
C1800      C1801   1.412       .  A
C1801      C1802   1.399       .  A
C1801      N1808   1.433       .  S
C1802      C1803   1.400       .  A
C1802      H1807   1.084       .  S
C1803      C1804   1.402       .  A
C1804      N1805   1.432       .  S
N1805      H1809   1.045       .  S
N1805      H1810   1.045       .  S
N1808      H1811   1.046       .  S
N1808      H1812   1.046       .  S
C1813      C1814   1.415       .  A
C1813      C2520   1.421   1_545  A
C1813      H1820   1.084       .  S
C1814      C1815   1.409       .  A
C1815      C2518   1.420   1_545  A
C1815      N1822   1.431       .  S
C1816      C2517   1.426       .  A
C1816      C1817   1.420       .  A
C1816      H1821   1.084       .  S
C1817      C1818   1.421       .  A
C1818      C2515   1.420       .  A
C1818      N1819   1.436       .  S
N1819      H1823   1.044       .  S
N1819      H1824   1.043       .  S
N1822      H1825   1.045       .  S
N1822      H1826   1.046       .  S
C1827      C1828   1.407       .  A
C1827      H1834   1.084       .  S
C1828      C1829   1.432       .  A
C1829      N1836   1.435       .  S
C1830      C1831   1.404       .  A
C1830      H1835   1.084       .  S
C1831      C1832   1.420       .  A
C1832      N1833   1.431       .  S
N1833      H1837   1.045       .  S
N1833      H1838   1.045       .  S
N1836      H1839   1.041       .  S
N1836      H1840   1.045       .  S
C1841      C1842   1.414       .  A
C1841      C1846   1.419       .  A
C1841      H1848   1.084       .  S
C1842      C1843   1.415       .  A
C1843      C1844   1.420       .  A
C1843      N1850   1.432       .  S
C1844      C1845   1.421       .  A
C1844      H1849   1.083       .  S
C1845      C1846   1.424       .  A
C1846      N1847   1.436       .  S
N1847      H1851   1.046       .  S
N1847      H1852   1.038       .  S
N1850      H1853   1.045       .  S
N1850      H1854   1.045       .  S
C1855      C1856   1.401       .  A
C1855      C1860   1.399       .  A
C1855      H2564   1.083       .  S
C1856      C1857   1.416       .  A
C1857      C1858   1.396       .  A
C1857      N1864   1.438       .  S
C1858      C1859   1.405       .  A
C1858      H1863   1.084       .  S
C1859      C1860   1.411       .  A
C1860      N1861   1.438       .  S
N1861      H2567   1.046       .  S
N1861      H1866   1.046       .  S
H1862      C2557   1.084   1_545  S
N1864      H1867   1.041       .  S
N1864      H1868   1.045       .  S
H1865      N2563   1.046       .  S
C1869      C1870   1.399       .  A
C1869      C1874   1.395       .  A
C1869      H1876   1.084       .  S
C1870      C1871   1.417       .  A
C1871      C1872   1.404       .  A
C1871      N1878   1.432       .  S
C1872      C1873   1.398       .  A
C1872      H2579   1.084       .  S
C1873      C1874   1.408       .  A
N1875      H1879   1.046       .  S
N1875      H1880   1.046       .  S
H1877      C2574   1.083       .  S
N1878      H1881   1.046       .  S
N1878      H2584   1.046       .  S
H1882      N2580   1.046       .  S
C1883      C1884   1.401       .  A
C1883      C1888   1.405       .  A
C1883      H1890   1.084       .  S
C1884      C1885   1.402       .  A
C1885      C1886   1.401       .  A
C1886      C1887   1.409       .  A
C1886      H1891   1.084       .  S
C1887      C1888   1.415       .  A
C1888      N1889   1.438       .  S
N1889      H1893   1.046       .  S
N1889      H1894   1.045       .  S
N1892      H1895   1.046   1_655  S
N1892      H1896   1.045       .  S
C1897      C1898   1.404       .  A
C1897      C1902   1.398       .  A
C1897      H1904   1.084       .  S
C1898      C1899   1.409       .  A
C1899      C1900   1.397       .  A
C1899      N1906   1.437       .  S
C1900      C1901   1.404       .  A
C1900      H1905   1.084       .  S
C1901      C1902   1.406       .  A
C1902      N1903   1.438       .  S
N1903      H1907   1.045       .  S
N1903      H1908   1.046       .  S
N1906      H1909   1.043       .  S
N1906      H1910   1.045       .  S
C1911      C1912   1.401       .  A
C1911      C1916   1.406       .  A
C1911      H1918   1.082       .  S
C1912      C1913   1.413       .  A
C1913      C1914   1.395       .  A
C1913      N1920   1.429       .  S
C1914      C1915   1.394       .  A
C1914      H1919   1.084       .  S
C1915      C1916   1.416       .  A
C1916      N1917   1.438       .  S
N1917      H1921   1.046       .  S
N1917      H1922   1.045       .  S
N1920      H1923   1.046       .  S
N1920      H1924   1.046       .  S
C1925      C1926   1.405       .  A
C1925      C1930   1.399       .  A
C1925      H1932   1.084       .  S
C1926      C1927   1.408       .  A
C1927      C1928   1.400       .  A
C1927      N1934   1.438       .  S
C1928      C1929   1.402       .  A
C1928      H1933   1.084       .  S
C1929      C1930   1.402       .  A
C1930      N1931   1.432       .  S
N1931      H1935   1.045       .  S
N1931      H1936   1.046       .  S
C1939      C1940   1.402       .  A
C1939      C1944   1.415       .  A
C1939      H2648   1.083       .  S
C1940      C1941   1.418       .  A
C1941      C1942   1.420       .  A
C1941      N1948   1.431       .  S
C1942      C1943   1.407       .  A
C1942      H1947   1.084       .  S
C1943      C1944   1.429       .  A
C1944      N1945   1.431       .  S
N1945      H1949   1.040       .  S
N1945      H1950   1.042       .  S
H1946      C2641   1.083   1_545  S
N1948      H1952   1.045       .  S
C1953      C1954   1.417       .  A
C1953      C1958   1.423       .  A
C1953      H2662   1.083       .  S
C1954      C1955   1.414       .  A
C1955      C1956   1.429       .  A
C1955      N1962   1.436       .  S
C1956      C1957   1.423       .  A
C1956      H1961   1.083       .  S
C1957      C1958   1.426       .  A
C1958      N1959   1.435       .  S
N1959      H2665   1.044       .  S
N1959      H1964   1.041       .  S
H1960      C2655   1.084       .  S
N1962      H1965   1.045       .  S
N1962      H1966   1.045       .  S
H1963      N2661   1.043       .  S
C1967      C1968   1.408       .  A
C1967      C1972   1.430       .  A
C1967      H1974   1.083       .  S
C1968      C1969   1.423       .  A
C1969      C1970   1.427       .  A
C1969      N1976   1.431       .  S
C1970      C1971   1.408       .  A
C1970      H1975   1.083       .  S
C1971      C1972   1.426       .  A
C1972      N1973   1.437       .  S
N1973      H1977   1.045       .  S
N1973      H1978   1.045       .  S
N1976      H1979   1.045       .  S
N1976      H1980   1.045       .  S
C1981      C1982   1.402       .  A
C1981      C1986   1.395       .  A
C1981      H1988   1.084       .  S
C1982      C1983   1.402       .  A
C1983      C1984   1.396       .  A
C1983      N1990   1.438       .  S
C1984      C1985   1.406       .  A
C1984      H1989   1.080       .  S
C1985      C1986   1.416       .  A
C1986      N1987   1.436       .  S
N1987      H1991   1.045       .  S
N1987      H1992   1.042       .  S
N1990      H1993   1.045   1_655  S
N1990      H1994   1.046       .  S
C1995      C1996   1.403       .  A
C1995      C2000   1.393       .  A
C1995      H2002   1.085   1_655  S
C1996      C1997   1.415       .  A
C1997      C1998   1.395       .  A
C1997      N2706   1.439       .  S
C1998      C1999   1.401       .  A
C1998      H2003   1.085       .  S
C1999      C2000   1.410       .  A
C2000      N2001   1.433       .  S
N2001      H2005   1.043       .  S
N2001      H2006   1.041       .  S
N2004      C2699   1.439       .  S
N2004      H2007   1.043       .  S
N2004      H2008   1.045       .  S
C2009      C2010   1.395       .  A
C2009      C2014   1.393       .  A
C2009      H2016   1.084       .  S
C2010      C2011   1.413       .  A
C2011      C2012   1.403       .  A
C2011      N2720   1.438   1_545  S
C2012      C2013   1.400       .  A
C2012      H2017   1.083       .  S
C2013      C2014   1.409       .  A
C2014      N2015   1.430       .  S
N2015      H2019   1.046       .  S
N2015      H2020   1.046       .  S
N2018      C2713   1.438       .  S
N2018      H2021   1.046       .  S
N2018      H2022   1.046       .  S
C2023      C2024   1.406       .  A
C2023      C2028   1.401       .  A
C2023      H2030   1.084       .  S
C2024      C2025   1.413       .  A
C2025      C2026   1.399       .  A
C2026      C2027   1.406       .  A
C2026      H2031   1.084       .  S
C2027      C2028   1.414       .  A
C2028      N2029   1.433       .  S
N2029      H2033   1.046       .  S
N2029      H2034   1.046       .  S
N2032      H2035   1.046   1_455  S
N2032      H2036   1.046       .  S
C2037      C2038   1.402       .  A
C2037      C2042   1.396       .  A
C2037      H2044   1.084       .  S
C2038      C2039   1.420       .  A
C2039      C2040   1.397       .  A
C2040      C2041   1.403       .  A
C2040      H2045   1.084       .  S
C2041      C2042   1.420       .  A
C2042      N2043   1.433       .  S
N2043      H2047   1.044       .  S
N2043      H2048   1.046       .  S
N2046      H2049   1.046       .  S
N2046      H2050   1.044       .  S
C2051      C2052   1.409       .  A
C2051      C2056   1.398       .  A
C2051      H2058   1.084       .  S
C2052      C2053   1.414       .  A
C2053      C2054   1.395       .  A
C2053      N2060   1.433       .  S
C2054      C2055   1.407       .  A
C2054      H2059   1.084       .  S
C2055      C2056   1.414       .  A
C2056      N2057   1.433       .  S
N2057      H2061   1.045       .  S
N2057      H2062   1.045       .  S
N2060      H2063   1.043       .  S
N2060      H2064   1.047       .  S
C2065      C2066   1.404       .  A
C2065      C2772   1.390       .  A
C2065      H2072   1.084       .  S
C2066      C2067   1.413       .  A
C2067      C2068   1.393       .  A
C2067      N2074   1.439       .  S
C2068      C2771   1.401       .  A
C2068      H2073   1.085   1_545  S
C2069      C2770   1.400       .  A
C2069      C2070   1.410       .  A
C2070      C2767   1.391       .  A
C2070      N2071   1.439       .  S
N2071      H2075   1.046       .  S
N2071      H2076   1.043       .  S
N2074      H2077   1.041       .  S
N2074      H2078   1.046       .  S
C2079      C2080   1.405       .  A
C2079      H2086   1.084       .  S
C2081      C2082   1.398       .  A
C2081      N2088   1.438       .  S
C2082      C2083   1.405       .  A
C2082      H2087   1.082       .  S
C2083      C2084   1.405       .  A
C2084      N2085   1.437       .  S
N2085      H2090   1.045       .  S
N2088      H2091   1.045       .  S
N2088      H2092   1.046       .  S
C2093      C2094   1.404       .  A
C2093      C2098   1.398       .  A
C2093      H2100   1.084       .  S
C2094      C2095   1.407       .  A
C2095      C2096   1.398       .  A
C2095      N2102   1.431       .  S
C2096      C2097   1.403       .  A
C2096      H2101   1.084       .  S
C2097      C2098   1.403       .  A
C2098      N2099   1.432       .  S
N2099      H2103   1.046       .  S
N2099      H2104   1.045       .  S
N2102      H2105   1.045       .  S
N2102      H2106   1.045       .  S
Zn2107     O2111   1.940       .  S
Zn2107     O2112   1.971       .  S
Zn2107     O2116   2.011       .  S
Zn2107     O2123   1.972       .  S
Zn2108     O2111   1.953       .  S
Zn2108     O2113   2.047       .  S
Zn2108     O2115   2.009       .  S
Zn2108     O2119   2.005       .  S
Zn2109     O2111   1.910       .  S
Zn2109     O2114   1.934       .  S
Zn2109     O2117   1.955       .  S
Zn2109     O2120   1.971       .  S
Zn2110     O2111   1.948       .  S
Zn2110     O2118   2.030       .  S
Zn2110     O2121   1.987       .  S
Zn2110     O2122   2.015       .  S
O2112      C2124   1.269       .  A
O2113      C2125   1.278       .  A
O2114      C2126   1.263       .  A
O2115      C2124   1.272       .  A
O2116      C2126   1.271       .  A
O2117      C2125   1.264       .  A
O2118      C2127   1.276       .  A
O2119      C2128   1.271       .  A
O2120      C2127   1.267       .  A
O2121      C2128   1.272       .  A
O2122      C2129   1.273       .  A
O2123      C2129   1.268       .  A
C2124      C2754   1.475       .  S
C2125      C2799   1.468       .  S
C2126      C2771   1.450   1_565  S
C2127      C2782   1.468       .  S
C2128      C2743   1.489       .  S
C2129      C2729   1.483       .  S
Zn2130     O2135   1.987       .  S
Zn2130     O2139   2.023       .  S
Zn2131     O2136   2.032       .  S
Zn2132     O2134   1.902       .  S
Zn2133     O2141   2.015       .  S
Zn2133     O2144   1.987       .  S
O2135      C2147   1.271       .  A
O2136      C2148   1.275       .  A
O2137      C2149   1.265       .  A
O2138      C2147   1.271       .  A
O2139      C2149   1.274       .  A
O2140      C2148   1.264       .  A
O2141      C2150   1.273       .  A
O2142      C2151   1.270   1_545  A
O2143      C2150   1.264       .  A
O2144      C2151   1.271       .  A
O2145      C2152   1.270       .  A
O2146      C2152   1.273       .  A
C2147      C2740   1.487       .  S
C2148      C2698   1.458       .  S
C2149      C2712   1.459       .  S
C2150      C2684   1.454       .  S
C2151      C2757   1.469       .  S
C2152      C2726   1.481       .  S
C2153      H2154   1.109       .  S
C2153      C2159   1.598       .  S
C2153      C2158   1.600       .  S
C2153      C2157   1.595       .  S
C2155      H2156   1.112       .  S
C2155      C2161   1.507       .  S
C2155      C2160   1.509       .  S
C2155      C2162   1.506       .  S
C2157      C2160   1.375       .  D
C2157      C2645   1.528       .  S
C2158      C2161   1.374       .  D
C2158      C2659   1.543       .  S
C2159      C2162   1.372       .  D
C2159      C2670   1.536       .  S
C2160      C2614   1.481       .  S
C2161      C2600   1.471       .  S
C2162      C2631   1.476       .  S
C2163      H2164   1.109       .  S
C2167      C2170   1.374       .  D
C2167      C2673   1.538       .  S
C2168      C2171   1.374       .  D
C2168      C2656   1.533       .  S
C2169      C2172   1.376       .  D
C2169      C2642   1.525       .  S
C2170      C2586   1.478       .  S
C2171      C2558   1.478       .  S
C2172      C2575   1.487       .  S
C2173      H2174   1.105       .  S
C2173      C2179   1.528       .  S
C2173      C2178   1.518       .  S
C2173      C2177   1.527       .  S
C2175      H2176   1.110       .  S
C2175      C2181   1.595       .  S
C2175      C2180   1.593       .  S
C2175      C2182   1.590       .  S
C2177      C2180   1.383       .  D
C2177      C2505   1.503       .  S
C2178      C2181   1.379       .  D
C2178      C2488   1.492       .  S
C2179      C2182   1.366       .  D
C2179      C2477   1.480       .  S
C2180      C2547   1.538       .  S
C2181      C2530   1.535       .  S
C2182      C2519   1.532       .  S
C2183      H2184   1.111       .  S
C2183      C2189   1.519       .  S
C2183      C2188   1.517       .  S
C2183      C2187   1.515       .  S
C2185      H2186   1.110       .  S
C2185      C2191   1.598       .  S
C2185      C2190   1.593       .  S
C2185      C2192   1.598       .  S
C2187      C2190   1.366       .  D
C2187      C2768   1.474       .  S
C2188      C2191   1.378       .  D
C2188      C2785   1.483       .  S
C2189      C2192   1.380       .  D
C2189      C2796   1.494       .  S
C2190      C2516   1.532       .  S
C2191      C2533   1.539       .  S
C2192      C2544   1.537       .  S
Zn2193     O2197   1.900       .  S
Zn2193     O2198   2.014       .  S
Zn2193     O2202   2.050       .  S
Zn2193     O2209   1.966       .  S
Zn2194     O2197   1.885       .  S
Zn2194     O2199   2.054       .  S
Zn2194     O2201   2.007       .  S
Zn2194     O2205   1.991       .  S
Zn2195     O2197   1.832       .  S
Zn2195     O2200   1.949       .  S
Zn2195     O2203   1.952       .  S
Zn2195     O2206   1.948       .  S
Zn2196     O2197   1.917       .  S
Zn2196     O2204   2.041       .  S
Zn2196     O2207   1.990       .  S
Zn2196     O2208   1.996       .  S
O2198      C2210   1.274       .  A
O2199      C2211   1.278       .  A
O2200      C2212   1.264       .  A
O2201      C2210   1.277       .  A
O2202      C2212   1.277       .  A
O2203      C2211   1.266       .  A
O2204      C2213   1.275       .  A
O2205      C2214   1.276       .  A
O2206      C2213   1.264       .  A
O2207      C2214   1.272       .  A
O2208      C2215   1.274       .  A
O2209      C2215   1.273       .  A
C2210      C2502   1.473       .  S
C2211      C2446   1.479       .  S
C2212      C2463   1.469       .  S
C2213      C2435   1.466       .  S
C2214      C2491   1.471       .  S
C2215      C2474   1.462       .  S
Zn2216     O2220   1.891       .  S
Zn2216     O2225   1.953       .  S
Zn2217     O2224   2.029       .  S
Zn2217     O2228   1.996       .  S
Zn2218     O2220   1.934       .  S
Zn2218     O2223   2.022       .  S
Zn2218     O2229   1.986       .  S
Zn2219     O2231   2.030       .  S
O2221      C2233   1.265       .  A
O2222      C2234   1.269       .  A
O2223      C2235   1.274       .  A
O2224      C2233   1.277       .  A
O2225      C2235   1.266       .  A
O2226      C2234   1.272       .  A
O2227      C2236   1.275       .  A
O2228      C2237   1.272       .  A
O2229      C2236   1.269       .  A
O2230      C2237   1.270   1_455  A
O2231      C2238   1.276       .  A
O2232      C2238   1.262       .  A
C2233      C2603   1.459       .  S
C2234      C2432   1.473       .  S
C2235      C2628   1.465       .  S
C2236      C2460   1.476       .  S
C2237      C2449   1.466       .  S
C2238      C2617   1.461       .  S
C2239      H2240   1.108       .  S
C2239      C2245   1.595       .  S
C2239      C2244   1.590       .  S
C2239      C2243   1.594       .  S
C2241      H2242   1.113       .  S
C2241      C2247   1.511       .  S
C2241      C2246   1.508       .  S
C2241      C2248   1.507       .  S
C2243      C2246   1.373       .  D
C2243      C2418   1.530       .  S
C2244      C2247   1.373       .  D
C2244      C2390   1.527       .  S
C2245      C2248   1.372       .  D
C2245      C2404   1.534       .  S
C2246      C2715   1.477       .  S
C2247      C2701   1.473       .  S
C2248      C2687   1.473       .  S
C2249      H2250   1.109       .  S
C2249      C2254   1.592       .  S
C2251      H2252   1.113       .  S
C2251      C2257   1.514       .  S
C2253      C2256   1.372       .  D
C2253      C2407   1.537       .  S
C2254      C2257   1.377       .  D
C2254      C2393   1.529       .  S
C2255      C2258   1.373       .  D
C2255      C2421   1.532       .  S
C2256      C2348   1.477       .  S
C2257      C2362   1.482       .  S
C2258      C2379   1.475       .  S
Zn2259     O2263   1.916       .  S
Zn2259     O2264   2.015       .  S
Zn2259     O2268   2.033       .  S
Zn2259     O2275   2.068       .  S
Zn2260     O2263   1.906       .  S
Zn2260     O2265   1.991       .  S
Zn2260     O2267   1.985       .  S
Zn2260     O2271   2.045       .  S
Zn2261     O2263   1.905       .  S
Zn2261     O2266   1.999       .  S
Zn2261     O2269   2.011       .  S
Zn2261     O2272   2.058       .  S
Zn2262     O2263   1.852       .  S
Zn2262     O2270   1.949       .  S
Zn2262     O2273   1.959       .  S
Zn2262     O2274   1.944       .  S
O2264      C2276   1.277       .  A
O2265      C2277   1.273       .  A
O2266      C2278   1.274       .  A
O2267      C2276   1.273       .  A
O2268      C2278   1.279       .  A
O2269      C2277   1.278       .  A
O2270      C2279   1.264       .  A
O2271      C2280   1.278       .  A
O2272      C2279   1.277       .  A
O2273      C2280   1.265       .  A
O2274      C2281   1.262       .  A
O2275      C2281   1.279       .  A
C2276      C2561   1.474       .  S
C2277      C2572   1.471       .  S
C2278      C2589   1.482       .  S
C2279      C2337   1.487       .  S
C2280      C2323   1.479       .  S
C2281      C2306   1.478       .  S
Zn2282     O2286   1.921       .  S
Zn2282     O2287   2.012       .  S
Zn2282     O2291   2.076       .  S
Zn2282     O2298   2.020       .  S
Zn2283     O2286   1.902       .  S
Zn2283     O2288   2.048       .  S
Zn2283     O2290   1.992       .  S
Zn2283     O2294   2.000       .  S
Zn2284     O2286   1.853       .  S
Zn2284     O2289   1.945       .  S
Zn2284     O2292   1.953       .  S
Zn2284     O2295   1.953       .  S
Zn2285     O2286   1.904       .  S
Zn2285     O2293   2.065       .  S
Zn2285     O2296   2.032       .  S
Zn2285     O2297   2.011       .  S
O2287      C2299   1.276       .  A
O2288      C2300   1.278       .  A
O2289      C2301   1.262       .  A
O2290      C2299   1.274       .  A
O2291      C2301   1.278       .  A
O2292      C2300   1.264       .  A
O2293      C2302   1.280       .  A
O2294      C2303   1.274       .  A
O2295      C2302   1.264       .  A
O2296      C2303   1.279       .  A
O2297      C2304   1.277       .  A
O2298      C2304   1.278       .  A
C2299      C2376   1.477       .  S
C2300      C2320   1.478   1_554  S
C2301      C2309   1.480       .  S
C2302      C2334   1.479   1_554  S
C2303      C2365   1.481       .  S
C2304      C2351   1.483       .  S
C2305      C2306   1.408       .  A
C2305      C2310   1.398       .  A
C2305      H2312   1.084       .  S
C2306      C2307   1.413       .  A
C2307      C2308   1.397       .  A
C2307      N2314   1.432       .  S
C2308      C2309   1.408   1_556  A
C2308      H2313   1.084       .  S
C2309      C2310   1.413   1_554  A
C2310      N2311   1.432   1_556  S
N2311      H2315   1.045       .  S
N2311      H2316   1.046       .  S
N2314      H2317   1.047       .  S
N2314      H2318   1.044       .  S
C2319      C2320   1.398   1_554  A
C2319      H2326   1.084       .  S
C2320      C2321   1.419       .  A
C2321      N2328   1.434       .  S
C2322      C2323   1.401   1_545  A
C2322      H2327   1.084       .  S
C2323      C2324   1.415       .  A
C2324      N2325   1.433       .  S
N2325      H2329   1.046       .  S
N2325      H2330   1.046       .  S
N2328      H2331   1.046       .  S
N2328      H2332   1.046       .  S
C2333      C2334   1.409       .  A
C2333      C2338   1.405       .  A
C2333      H2340   1.084       .  S
C2335      C2336   1.401   1_554  A
C2335      N2342   1.432       .  S
C2336      C2337   1.412       .  A
C2336      H2341   1.084       .  S
C2338      N2339   1.433       .  S
N2339      H2343   1.046       .  S
N2339      H2344   1.046       .  S
N2342      H2345   1.046       .  S
N2342      H2346   1.046       .  S
C2347      C2348   1.401       .  A
C2347      C2352   1.398       .  A
C2347      H2354   1.083       .  S
C2348      C2349   1.413       .  A
C2349      C2350   1.401       .  A
C2350      C2351   1.409       .  A
C2350      H2355   1.084       .  S
C2351      C2352   1.410       .  A
C2352      N2353   1.432       .  S
N2353      H2357   1.046       .  S
N2353      H2358   1.046       .  S
N2356      H2359   1.040       .  S
N2356      H2360   1.046       .  S
C2361      C2362   1.403       .  A
C2361      C2366   1.399       .  A
C2361      H2368   1.081   1_655  S
C2362      C2363   1.404       .  A
C2363      C2364   1.404       .  A
C2363      N2370   1.432       .  S
C2364      C2365   1.410       .  A
C2364      H2369   1.084       .  S
C2365      C2366   1.408       .  A
C2366      N2367   1.432   1_655  S
N2367      H2371   1.046       .  S
N2367      H2372   1.046       .  S
N2370      H2373   1.045       .  S
N2370      H2374   1.046       .  S
C2375      C2376   1.408       .  A
C2375      C2380   1.405       .  A
C2375      H2382   1.083       .  S
C2376      C2377   1.410       .  A
C2377      C2378   1.393       .  A
C2377      N2384   1.433       .  S
C2378      C2379   1.399       .  A
C2378      H2383   1.083       .  S
C2379      C2380   1.408       .  A
C2380      N2381   1.438       .  S
N2381      H2385   1.045       .  S
N2381      H2386   1.045       .  S
N2384      H2387   1.046       .  S
N2384      H2388   1.046       .  S
C2389      C2390   1.417       .  A
C2389      C2394   1.415       .  A
C2389      H2396   1.083       .  S
C2390      C2391   1.413       .  A
C2391      C2392   1.424       .  A
C2391      N2398   1.436       .  S
C2392      C2393   1.418       .  A
C2393      C2394   1.415       .  A
C2394      N2395   1.432       .  S
N2398      H2401   1.045       .  S
C2403      C2404   1.416       .  A
C2403      C2408   1.421       .  A
C2403      H2410   1.084       .  S
C2404      C2405   1.413       .  A
C2405      C2406   1.427       .  A
C2405      N2412   1.436       .  S
C2406      C2407   1.419       .  A
C2406      H2411   1.083       .  S
C2407      C2408   1.422       .  A
C2408      N2409   1.437   1_655  S
N2412      H2415   1.046       .  S
N2412      H2416   1.045       .  S
C2417      C2418   1.416       .  A
C2417      C2422   1.421       .  A
C2417      H2424   1.084       .  S
C2418      C2419   1.414       .  A
C2419      C2420   1.417       .  A
C2419      N2426   1.431       .  S
C2420      C2421   1.418       .  A
C2420      H2425   1.084       .  S
C2421      C2422   1.423       .  A
C2422      N2423   1.437       .  S
N2423      H2427   1.047       .  S
N2423      H2428   1.040       .  S
N2426      H2429   1.045       .  S
N2426      H2430   1.045       .  S
C2431      C2432   1.407       .  A
C2431      C2436   1.398       .  A
C2431      H2438   1.084       .  S
C2432      C2433   1.415       .  A
C2433      C2434   1.395       .  A
C2433      N2440   1.433       .  S
C2434      C2435   1.404       .  A
C2434      H2439   1.084       .  S
C2435      C2436   1.406       .  A
C2436      N2437   1.433       .  S
N2437      H2441   1.046   1_655  S
N2437      H2442   1.046       .  S
N2440      H2443   1.045       .  S
N2440      H2444   1.044       .  S
C2445      C2446   1.411       .  A
C2445      C2450   1.396       .  A
C2445      H2452   1.084       .  S
C2446      C2447   1.412       .  A
C2447      C2448   1.403       .  A
C2447      N2454   1.438       .  S
C2448      C2449   1.403       .  A
C2448      H2453   1.084       .  S
C2449      C2450   1.406       .  A
N2451      H2455   1.045       .  S
N2451      H2456   1.045       .  S
N2454      H2457   1.046       .  S
N2454      H2458   1.045       .  S
C2459      C2460   1.406       .  A
C2459      C2464   1.403       .  A
C2459      H2466   1.084       .  S
C2460      C2461   1.415       .  A
C2461      C2462   1.396       .  A
C2461      N2468   1.433       .  S
C2462      C2463   1.403       .  A
C2462      H2467   1.084       .  S
C2463      C2464   1.410       .  A
C2464      N2465   1.439       .  S
N2465      H2470   1.046       .  S
N2468      H2471   1.045       .  S
N2468      H2472   1.044       .  S
C2473      C2478   1.399   1_545  A
C2475      C2476   1.400       .  A
C2476      C2477   1.394       .  A
C2476      H2481   1.082       .  S
C2477      C2478   1.403       .  A
C2478      N2479   1.432       .  S
N2479      H2483   1.046   1_565  S
N2479      H2484   1.044       .  S
N2482      H2485   1.046       .  S
N2482      H2486   1.046       .  S
C2487      C2488   1.404       .  A
C2487      C2492   1.402       .  A
C2487      H2494   1.084       .  S
C2488      C2489   1.419       .  A
C2489      N2496   1.427       .  S
C2490      C2491   1.396   1_455  A
C2490      H2495   1.085       .  S
C2492      N2493   1.432       .  S
N2493      H2497   1.046       .  S
N2496      H2499   1.037       .  S
N2496      H2500   1.041       .  S
C2501      C2502   1.390       .  A
C2501      C2506   1.392       .  A
C2501      H2508   1.085       .  S
C2502      C2503   1.410       .  A
C2503      C2504   1.408       .  A
C2503      N2510   1.432       .  S
C2504      C2505   1.408       .  A
C2504      H2509   1.082       .  S
C2505      C2506   1.417       .  A
C2506      N2507   1.423       .  S
N2507      H2511   1.046       .  S
N2507      H2512   1.046       .  S
N2510      H2513   1.046       .  S
N2510      H2514   1.045       .  S
C2515      C2516   1.414       .  A
C2515      H2522   1.081       .  S
C2516      C2517   1.411       .  A
C2517      N2524   1.431       .  S
C2518      C2519   1.418       .  A
C2518      H2523   1.083       .  S
C2519      C2520   1.422       .  A
C2520      N2521   1.436       .  S
N2521      H2525   1.045       .  S
N2521      H2526   1.043       .  S
N2524      H2527   1.045       .  S
N2524      H2528   1.046       .  S
C2529      C2530   1.407       .  A
C2529      H2536   1.083       .  S
C2530      C2531   1.432       .  A
C2531      N2538   1.435       .  S
C2532      C2533   1.404       .  A
C2532      H2537   1.083       .  S
C2533      C2534   1.423       .  A
C2534      N2535   1.431       .  S
N2535      H2539   1.046       .  S
N2535      H2540   1.045       .  S
N2538      H2541   1.043       .  S
N2538      H2542   1.045       .  S
C2543      C2544   1.408       .  A
C2543      C2548   1.423       .  A
C2543      H2550   1.083       .  S
C2544      C2545   1.431       .  A
C2545      C2546   1.423       .  A
C2545      N2552   1.438       .  S
C2546      C2547   1.408       .  A
C2546      H2551   1.083       .  S
C2547      C2548   1.430       .  A
C2548      N2549   1.438       .  S
N2549      H2553   1.046       .  S
N2549      H2554   1.043       .  S
N2552      H2555   1.043       .  S
N2552      H2556   1.045       .  S
C2557      C2558   1.401       .  A
C2557      C2562   1.399       .  A
C2558      C2559   1.417       .  A
C2559      C2560   1.395       .  A
C2559      N2566   1.437       .  S
C2560      C2561   1.403       .  A
C2560      H2565   1.084       .  S
C2561      C2562   1.412       .  A
C2562      N2563   1.438   1_565  S
N2563      H2568   1.046   1_545  S
N2566      H2569   1.041       .  S
N2566      H2570   1.045       .  S
C2571      C2572   1.393       .  A
C2571      C2576   1.393       .  A
C2571      H2578   1.084       .  S
C2572      C2573   1.414       .  A
C2573      C2574   1.405       .  A
C2573      N2580   1.432       .  S
C2574      C2575   1.401       .  A
C2575      C2576   1.412       .  A
N2577      H2581   1.046       .  S
N2577      H2582   1.045       .  S
N2580      H2583   1.045   1_565  S
C2585      C2586   1.402       .  A
C2585      C2590   1.403       .  A
C2585      H2592   1.084       .  S
C2586      C2587   1.402       .  A
C2587      C2588   1.402       .  A
C2588      C2589   1.410       .  A
C2588      H2593   1.084       .  S
C2589      C2590   1.412       .  A
C2590      N2591   1.437       .  S
N2591      H2595   1.046       .  S
N2591      H2596   1.046       .  S
N2594      H2597   1.046   1_655  S
N2594      H2598   1.045       .  S
C2599      C2600   1.403       .  A
C2599      C2604   1.400       .  A
C2599      H2606   1.084       .  S
C2600      C2601   1.404       .  A
C2601      C2602   1.393       .  A
C2601      N2608   1.433       .  S
C2602      C2603   1.404       .  A
C2602      H2607   1.084       .  S
C2603      C2604   1.407       .  A
C2604      N2605   1.438       .  S
N2605      H2609   1.045       .  S
N2605      H2610   1.046       .  S
N2608      H2611   1.045       .  S
N2608      H2612   1.045       .  S
C2613      C2614   1.400       .  A
C2613      C2618   1.404       .  A
C2613      H2620   1.083       .  S
C2614      C2615   1.413       .  A
C2615      C2616   1.390       .  A
C2615      N2622   1.428       .  S
C2616      C2617   1.391       .  A
C2616      H2621   1.085       .  S
C2617      C2618   1.415       .  A
C2618      N2619   1.438       .  S
N2619      H2623   1.046       .  S
N2619      H2624   1.046       .  S
N2622      H2625   1.046       .  S
N2622      H2626   1.046       .  S
C2627      C2628   1.405       .  A
C2627      C2632   1.397       .  A
C2627      H2634   1.084       .  S
C2628      C2629   1.407       .  A
C2629      C2630   1.400       .  A
C2629      N2636   1.438       .  S
C2630      C2631   1.406       .  A
C2630      H2635   1.084       .  S
C2631      C2632   1.403       .  A
C2632      N2633   1.431       .  S
N2633      H2637   1.045       .  S
N2633      H2638   1.046       .  S
C2641      C2642   1.405       .  A
C2641      C2646   1.418       .  A
C2642      C2643   1.419       .  A
C2643      C2644   1.421       .  A
C2643      N2650   1.431       .  S
C2644      C2645   1.407       .  A
C2644      H2649   1.083       .  S
C2645      C2646   1.429       .  A
C2646      N2647   1.433       .  S
N2647      H2651   1.043       .  S
N2647      H2652   1.039       .  S
N2650      H2654   1.045       .  S
C2655      C2656   1.414       .  A
C2655      C2660   1.418       .  A
C2656      C2657   1.412       .  A
C2657      C2658   1.427       .  A
C2657      N2664   1.437       .  S
C2658      C2659   1.423       .  A
C2658      H2663   1.083       .  S
C2659      C2660   1.424       .  A
C2660      N2661   1.435       .  S
N2661      H2666   1.041       .  S
N2664      H2667   1.045       .  S
N2664      H2668   1.045       .  S
C2669      C2670   1.406       .  A
C2669      C2674   1.427       .  A
C2669      H2676   1.083       .  S
C2670      C2671   1.426       .  A
C2671      C2672   1.429       .  A
C2671      N2678   1.437       .  S
C2672      C2673   1.408       .  A
C2672      H2677   1.083       .  S
C2673      C2674   1.425       .  A
C2674      N2675   1.437       .  S
N2675      H2679   1.045       .  S
N2675      H2680   1.045       .  S
N2678      H2681   1.046       .  S
N2678      H2682   1.045       .  S
C2683      C2684   1.401       .  A
C2683      C2688   1.395       .  A
C2683      H2690   1.084       .  S
C2684      C2685   1.402       .  A
C2685      C2686   1.396       .  A
C2685      N2692   1.438       .  S
C2686      C2687   1.403       .  A
C2686      H2691   1.080       .  S
C2687      C2688   1.415       .  A
C2688      N2689   1.438       .  S
N2689      H2693   1.045       .  S
N2689      H2694   1.043       .  S
N2692      H2695   1.046   1_655  S
N2692      H2696   1.046       .  S
C2697      C2698   1.403       .  A
C2697      C2702   1.394       .  A
C2697      H2704   1.085       .  S
C2698      C2699   1.413       .  A
C2699      C2700   1.395       .  A
C2700      C2701   1.402       .  A
C2700      H2705   1.084       .  S
C2701      C2702   1.410       .  A
C2702      N2703   1.432       .  S
N2703      H2707   1.043       .  S
N2703      H2708   1.041       .  S
N2706      H2709   1.042       .  S
N2706      H2710   1.046   1_545  S
C2711      C2712   1.395       .  A
C2711      C2716   1.395       .  A
C2711      H2718   1.084       .  S
C2712      C2713   1.411       .  A
C2713      C2714   1.403       .  A
C2714      C2715   1.402       .  A
C2714      H2719   1.083       .  S
C2715      C2716   1.408       .  A
C2716      N2717   1.431       .  S
N2717      H2721   1.045       .  S
N2717      H2722   1.046       .  S
N2720      H2723   1.046       .  S
N2720      H2724   1.046       .  S
C2725      C2726   1.404       .  A
C2725      C2730   1.398       .  A
C2725      H2732   1.084   1_565  S
C2726      C2727   1.412       .  A
C2727      C2728   1.402       .  A
C2728      C2729   1.406       .  A
C2728      H2733   1.084       .  S
C2729      C2730   1.414       .  A
C2730      N2731   1.433       .  S
N2731      H2735   1.046   1_565  S
N2731      H2736   1.046   1_565  S
N2734      H2737   1.046   1_455  S
N2734      H2738   1.046       .  S
C2739      C2740   1.407       .  A
C2739      C2744   1.397       .  A
C2739      H2746   1.084       .  S
C2740      C2741   1.419       .  A
C2741      C2742   1.396       .  A
C2742      C2743   1.407       .  A
C2742      H2747   1.084       .  S
C2743      C2744   1.419       .  A
C2744      N2745   1.433       .  S
N2745      H2749   1.044       .  S
N2745      H2750   1.047       .  S
N2748      H2751   1.045   1_455  S
N2748      H2752   1.045       .  S
C2753      C2754   1.409       .  A
C2753      C2758   1.394       .  A
C2753      H2760   1.084       .  S
C2754      C2755   1.412       .  A
C2755      C2756   1.395       .  A
C2755      N2762   1.433       .  S
C2756      C2757   1.407       .  A
C2756      H2761   1.084       .  S
C2757      C2758   1.410       .  A
C2758      N2759   1.433       .  S
N2759      H2763   1.046       .  S
N2759      H2764   1.044   1_565  S
N2762      H2765   1.045       .  S
N2762      H2766   1.045       .  S
C2767      C2768   1.398       .  A
C2767      H2774   1.082       .  S
C2768      C2769   1.413       .  A
C2769      C2770   1.398       .  A
C2769      N2776   1.438       .  S
C2770      H2775   1.084       .  S
C2771      C2772   1.404       .  A
C2772      N2773   1.433       .  S
N2773      H2777   1.045       .  S
N2773      H2778   1.045       .  S
N2776      H2779   1.042       .  S
N2776      H2780   1.045       .  S
C2781      C2782   1.404       .  A
C2781      H2788   1.084       .  S
C2783      C2784   1.399       .  A
C2783      N2790   1.438       .  S
C2784      C2785   1.404       .  A
C2784      H2789   1.077       .  S
C2785      C2786   1.409       .  A
C2786      N2787   1.436       .  S
N2787      H2792   1.046       .  S
N2790      H2793   1.045       .  S
N2790      H2794   1.046       .  S
C2795      C2796   1.403       .  A
C2795      C2800   1.408       .  A
C2795      H2802   1.082       .  S
C2796      C2797   1.413       .  A
C2797      C2798   1.395       .  A
C2797      N2804   1.424       .  S
C2798      C2799   1.391       .  A
C2798      H2803   1.085       .  S
C2799      C2800   1.415       .  A
C2800      N2801   1.438       .  S
N2801      H2805   1.046       .  S
N2801      H2806   1.045       .  S
N2804      H2807   1.046       .  S
N2804      H2808   1.046       .  S
