geometry optimzed in LAMMPS
_audit_creation_date              2020-11-30 
_audit_creation_method            'lammps2cif' 
_symmetry_space_group_name_H-M    'P1' 
_symmetry_Int_Tables_number       1 
_symmetry_cell_setting            triclinic 
loop_ 
_symmetry_equiv_pos_as_xyz 
  x,y,z 
_cell_length_a                    42.91592516 
_cell_length_b                    42.949821548577944 
_cell_length_c                    40.54884829230487 
_cell_angle_alpha                 90.01244974738461 
_cell_angle_beta                  89.91987181822964 
_cell_angle_gamma                 90.0360437597662 
loop_ 
_atom_site_label 
_atom_site_type_symbol 
_atom_site_fract_x 
_atom_site_fract_y 
_atom_site_fract_z 
_atom_site_charge 
O1          O  0.46114840  0.27677093  0.02164318    -0.70900
O2          O  0.50988963  0.29055866  0.94517143    -0.71200
O3          O  0.52150823  0.28901915  0.01022079    -0.71000
O4          O  0.44983300  0.27844389  0.95686397    -0.71000
O5          O  0.43967461  0.32767859  0.96165555    -0.71000
O6          O  0.51296103  0.33884737  0.01188345    -0.71000
O7          O  0.49936349  0.33984853  0.94765785    -0.71000
O8          O  0.45316145  0.32651425  0.02596916    -0.71100
V9          V  0.48547143  0.28464212  0.98356995     1.35200
V10         V  0.47646993  0.33226455  0.98673910     1.35200
C11         C  0.44884363  0.29929564  0.03687822     0.78300
C12         C  0.51253175  0.31751199  0.93296473     0.78400
C13         C  0.52952590  0.31580715  0.01996385     0.78200
C14         C  0.43230543  0.30127542  0.95041700     0.78200
O15         O  0.24251432  0.58412394  0.06379737    -0.70900
O16         O  0.22746865  0.52683274  0.99501880    -0.71200
O17         O  0.23359974  0.58897256  0.99898852    -0.71000
O18         O  0.23607416  0.52214081  0.05995505    -0.71000
O19         O  0.18676120  0.52824626  0.06960771    -0.71000
O20         O  0.18354085  0.59202459  0.00526497    -0.71000
O21         O  0.17776633  0.52950151  0.00419673    -0.71000
O22         O  0.19286038  0.59076221  0.07032349    -0.71100
V23         V  0.23393518  0.55559285  0.02958541     1.35200
V24         V  0.18613509  0.56001086  0.03721764     1.35200
C25         C  0.22048153  0.59821355  0.07798933     0.78300
C26         C  0.20022667  0.51774160  0.98820736     0.78400
C27         C  0.20814080  0.60208367  0.99180416     0.78200
C28         C  0.21181143  0.51373692  0.07523607     0.78200
O29         O  0.49535546  0.85540838  0.04407290    -0.70900
O30         O  0.53646107  0.86556781  0.96226176    -0.71200
O31         O  0.55443881  0.86430499  0.02538449    -0.71000
O32         O  0.47726716  0.85707105  0.98102466    -0.71000
O33         O  0.47068284  0.90700144  0.98428474    -0.71000
O34         O  0.54816878  0.91429723  0.02872217    -0.71000
O35         O  0.53044958  0.91558667  0.96536917    -0.71000
O36         O  0.48856977  0.90540230  0.04756948    -0.71100
V37         V  0.51574533  0.86160169  0.00322197     1.35200
V38         V  0.50958438  0.90965537  0.00639981     1.35200
C39         C  0.48461229  0.87850080  0.05962406     0.78300
C40         C  0.54088417  0.89220121  0.94989341     0.78400
C41         C  0.56463205  0.89051782  0.03453777     0.78200
C42         C  0.46050163  0.88065324  0.97546339     0.78200
O43         O  0.77860148  0.60203037  0.00380322    -0.70900
O44         O  0.77520066  0.66934598  0.94471738    -0.71200
O45         O  0.77280428  0.60767414  0.93866667    -0.71000
O46         O  0.78104705  0.66380350  0.00982097    -0.71000
O47         O  0.83144118  0.66056501  0.00632832    -0.71000
O48         O  0.82296105  0.60754025  0.93184055    -0.71000
O49         O  0.82564410  0.66943268  0.94088753    -0.71000
O50         O  0.82856152  0.59862897  0.99705108    -0.71100
V51         V  0.77793928  0.63567759  0.97415766     1.35200
V52         V  0.82627337  0.63411580  0.96913057     1.35200
C53         C  0.80384651  0.58834515  0.01018186     0.78300
C54         C  0.79969157  0.68109195  0.93281700     0.78400
C55         C  0.79637043  0.59803010  0.92301909     0.78200
C56         C  0.80757364  0.67149111  0.02051835     0.78200
O57         O  0.31318274  0.09581614  0.56444523    -0.70900
O58         O  0.33518644  0.02854363  0.50821264    -0.71200
O59         O  0.32783950  0.09005764  0.50012128    -0.71000
O60         O  0.32031087  0.03422669  0.57266370    -0.71000
O61         O  0.27087153  0.02968910  0.56233311    -0.71000
O62         O  0.27993030  0.08014488  0.48696781    -0.71000
O63         O  0.28601807  0.01959002  0.49946887    -0.71000
O64         O  0.26479331  0.09039670  0.55014263    -0.71100
V65         V  0.32328033  0.06202164  0.53618330     1.35200
V66         V  0.27638255  0.05513371  0.52496052     1.35200
C67         C  0.28519431  0.10483934  0.56655899     0.78300
C68         C  0.31416985  0.01241749  0.49461760     0.78400
C69         C  0.30522445  0.09393976  0.48057678     0.78200
C70         C  0.29397388  0.02295973  0.58015542     0.78200
O71         O  0.97734270  0.79478396  0.53540463    -0.70900
O72         O  0.04566473  0.77591533  0.47876061    -0.71200
O73         O  0.03697949  0.77739751  0.54461921    -0.71000
O74         O  0.98597221  0.79297053  0.46990836    -0.71000
O75         O  0.99854935  0.84184554  0.47172692    -0.71000
O76         O  0.05196574  0.82570454  0.54393891    -0.71000
O77         O  0.05841966  0.82481373  0.47855310    -0.71000
O78         O  0.99240392  0.84293391  0.53716056    -0.71100
V79         V  0.01177203  0.78614013  0.50717887     1.35200
V80         V  0.02508702  0.83283547  0.50780182     1.35200
C81         C  0.97318206  0.82223309  0.54589570     0.78300
C82         C  0.06367517  0.79733509  0.46897103     0.78400
C83         C  0.05348659  0.79892709  0.55673903     0.78200
C84         C  0.98301321  0.82016822  0.45851677     0.78200
O85         O  0.67712356  0.10479734  0.50252738    -0.70900
O86         O  0.67866352  0.16363539  0.43299882    -0.71200
O87         O  0.68481020  0.10126909  0.43700338    -0.71000
O88         O  0.67139433  0.16696356  0.49862170    -0.71000
O89         O  0.72142866  0.17120246  0.50466999    -0.71000
O90         O  0.73462566  0.10740980  0.44253317    -0.71000
O91         O  0.72851449  0.16915344  0.43953120    -0.71000
O92         O  0.72724436  0.10919762  0.50782791    -0.71100
V93         V  0.67890422  0.13425466  0.46786628     1.35200
V94         V  0.72693677  0.13913296  0.47355055     1.35200
C95         C  0.70195005  0.09668332  0.51680262     0.78300
C96         C  0.70380451  0.17689936  0.42481160     0.78400
C97         C  0.71224935  0.09299951  0.42944133     0.78200
C98         C  0.69436722  0.18037842  0.51203894     0.78200
O99         O  0.94161371  0.36016130  0.51516652    -0.70900
O100        O  0.00751942  0.33870903  0.45787190    -0.71200
O101        O  0.00034536  0.34223545  0.52345929    -0.71000
O102        O  0.94804471  0.35729302  0.44989440    -0.71000
O103        O  0.96421317  0.40527356  0.44800524    -0.71000
O104        O  0.01448507  0.39074917  0.52294031    -0.71000
O105        O  0.02331493  0.38672472  0.45768587    -0.71000
O106        O  0.95561431  0.40871702  0.51369050    -0.71100
V107        V  0.97471529  0.35053944  0.48643423     1.35200
V108        V  0.98913238  0.39695411  0.48550386     1.35200
C109        C  0.93750001  0.38785098  0.52459820     0.78300
C110        C  0.02705822  0.35883122  0.44844092     0.78400
C111        C  0.01582058  0.36418285  0.53620455     0.78200
C112        C  0.94697606  0.38396684  0.43679969     0.78200
O113        O  0.20924864  0.28208307  0.28607836    -0.70900
O114        O  0.27207226  0.26957665  0.22181297    -0.71200
O115        O  0.25833449  0.24368165  0.28029536    -0.71000
O116        O  0.22334578  0.30797810  0.22772885    -0.71000
O117        O  0.25198441  0.34177484  0.25355097    -0.71000
O118        O  0.28833633  0.27751768  0.30414703    -0.71000
O119        O  0.30109064  0.30412463  0.24604132    -0.71000
O120        O  0.23884190  0.31515340  0.31153684    -0.71100
V121        V  0.24131806  0.27641349  0.25451843     1.35200
V122        V  0.26949379  0.30894861  0.27837186     1.35200
C123        C  0.21305234  0.30103683  0.30959449     0.78300
C124        C  0.29695296  0.28526028  0.22250961     0.78400
C125        C  0.27957310  0.24961060  0.30097546     0.78200
C126        C  0.23180576  0.33593314  0.23177537     0.78200
O127        O  0.75527915  0.32494666  0.22351780    -0.70900
O128        O  0.78690010  0.38696254  0.16611999    -0.71200
O129        O  0.80294946  0.36510168  0.22552501    -0.71000
O130        O  0.73915048  0.34674663  0.16400892    -0.71000
O131        O  0.70947406  0.38130342  0.18709552    -0.71000
O132        O  0.77279537  0.39883479  0.24932749    -0.71000
O133        O  0.75749975  0.42126337  0.19015856    -0.71000
O134        O  0.72486912  0.35902713  0.24631942    -0.71100
V135        V  0.77049012  0.35659427  0.19521394     1.35200
V136        V  0.74173831  0.38948260  0.21770695     1.35200
C137        C  0.73460921  0.33132048  0.24468655     0.78300
C138        C  0.77779188  0.41480031  0.16862505     0.78400
C139        C  0.79871197  0.38495503  0.24811309     0.78200
C140        C  0.71328890  0.36069104  0.16519326     0.78200
O141        O  0.69500350  0.36567493  0.68878205    -0.70900
O142        O  0.71900365  0.43195410  0.74497299    -0.71200
O143        O  0.73968486  0.40897578  0.68765767    -0.71000
O144        O  0.67395205  0.38818191  0.74611814    -0.71000
O145        O  0.70469039  0.35653017  0.77205897    -0.71000
O146        O  0.77078933  0.37844137  0.71475195    -0.71000
O147        O  0.74915960  0.40045877  0.77208051    -0.71000
O148        O  0.72641250  0.33473673  0.71477315    -0.71100
V149        V  0.70746411  0.39815734  0.71750440     1.35200
V150        V  0.73713635  0.36818373  0.74298046     1.35200
C151        C  0.70719736  0.33903504  0.69165268     0.78300
C152        C  0.73836402  0.42752343  0.76794762     0.78400
C153        C  0.76628855  0.39679194  0.69088393     0.78200
C154        C  0.67790980  0.36820022  0.76862412     0.78200
O155        O  0.76750783  0.89828437  0.19382315    -0.70900
O156        O  0.83222664  0.88176598  0.25535321    -0.71200
O157        O  0.81407541  0.85727572  0.19733393    -0.71000
O158        O  0.78549635  0.92295723  0.25167764    -0.71000
O159        O  0.75366005  0.89128508  0.27614364    -0.71000
O160        O  0.78548858  0.82458447  0.22465707    -0.71000
O161        O  0.80096946  0.85130998  0.28250253    -0.71000
O162        O  0.73822367  0.86447261  0.21862227    -0.71100
V163        V  0.79930510  0.88945568  0.22508620     1.35200
V164        V  0.77021243  0.85850927  0.25001911     1.35200
C165        C  0.74202195  0.88354601  0.19522111     0.78300
C166        C  0.82721277  0.86441422  0.27999844     0.78400
C167        C  0.80417174  0.82983038  0.20113231     0.78200
C168        C  0.76450065  0.91850268  0.27307215     0.78200
O169        O  0.77199302  0.87730155  0.77024748    -0.70900
O170        O  0.74225223  0.93776091  0.71055313    -0.71200
O171        O  0.72256599  0.91503696  0.76864473    -0.71000
O172        O  0.79150249  0.89972053  0.71226396    -0.71000
O173        O  0.76453042  0.86487425  0.68604481    -0.71000
O174        O  0.69633190  0.87887259  0.74379283    -0.71000
O175        O  0.71489934  0.90261979  0.68531312    -0.71000
O176        O  0.74614816  0.84155645  0.74399952    -0.71100
V177        V  0.75650063  0.90682589  0.73988796     1.35200
V178        V  0.73090852  0.87271754  0.71525246     1.35200
C179        C  0.76440057  0.84907552  0.76709692     0.78300
C180        C  0.72394132  0.93055444  0.68742099     0.78400
C181        C  0.69806719  0.89879152  0.76671057     0.78200
C182        C  0.78991750  0.87937870  0.68979244     0.78200
O183        O  0.26998560  0.78681861  0.31831578    -0.70900
O184        O  0.33989406  0.80344140  0.26297795    -0.71200
O185        O  0.31838572  0.82653151  0.32023597    -0.71000
O186        O  0.29177255  0.76365538  0.26138705    -0.71000
O187        O  0.26587089  0.79776827  0.23321951    -0.71000
O188        O  0.28968612  0.86024380  0.29460673    -0.71000
O189        O  0.31301925  0.83904774  0.23768084    -0.71000
O190        O  0.24266227  0.81962823  0.28988966    -0.71100
V191        V  0.30451416  0.79575822  0.29021665     1.35200
V192        V  0.27836461  0.82849099  0.26431010     1.35200
C193        C  0.24423466  0.80043487  0.31337276     0.78300
C194        C  0.33830431  0.82445889  0.24119342     0.78400
C195        C  0.30835088  0.85409102  0.31780841     0.78200
C196        C  0.27437521  0.76982175  0.23715015     0.78200
O197        O  0.25628159  0.84401096  0.75755185    -0.70900
O198        O  0.23030393  0.77804510  0.81257533    -0.71200
O199        O  0.21130304  0.80075638  0.75476697    -0.71000
O200        O  0.27504333  0.82118929  0.81520404    -0.71000
O201        O  0.24438347  0.85404244  0.83961588    -0.71000
O202        O  0.17917174  0.83072829  0.78127332    -0.71000
O203        O  0.20009908  0.80952889  0.83971696    -0.71000
O204        O  0.22343771  0.87493146  0.78151194    -0.71100
V205        V  0.24256440  0.81159463  0.78554789     1.35200
V206        V  0.21229291  0.84168686  0.81009330     1.35200
C207        C  0.24439972  0.87081764  0.76002351     0.78300
C208        C  0.21107247  0.78246610  0.83567072     0.78400
C209        C  0.18437241  0.81230806  0.75755577     0.78200
C210        C  0.27096244  0.84155547  0.83727788     0.78200
O211        O  0.20306316  0.27039242  0.74650218    -0.70900
O212        O  0.17943600  0.33625072  0.80423427    -0.71200
O213        O  0.15838249  0.31391796  0.74598335    -0.71000
O214        O  0.22363735  0.29234505  0.80434491    -0.71000
O215        O  0.25553109  0.32116266  0.77599600    -0.71000
O216        O  0.18858602  0.34769777  0.72240177    -0.71000
O217        O  0.21299296  0.36628040  0.78006309    -0.71000
O218        O  0.23144621  0.30287782  0.71846598    -0.71100
V219        V  0.19159723  0.30384585  0.77476781     1.35200
V220        V  0.22147066  0.33396735  0.74973690     1.35200
C221        C  0.22123431  0.27557964  0.72251148     0.78300
C222        C  0.19336757  0.36223964  0.80288210     0.78400
C223        C  0.16244300  0.33427099  0.72387859     0.78200
C224        C  0.25087241  0.30255002  0.79961295     0.78200
C225        C  0.06051107  0.32765578  0.60723887    -0.13500
C226        C  0.06705850  0.35407949  0.62630359     0.16900
C227        C  0.05620348  0.38351651  0.61612932     0.03100
C228        C  0.04007962  0.38597010  0.58632008    -0.12000
C229        C  0.03410215  0.35970833  0.56663705    -0.03100
C230        C  0.04437732  0.33008692  0.57735236     0.02400
C231        C  0.08952969  0.35116691  0.65358002     0.09200
N232        N  0.06135168  0.41094284  0.63578445     0.65600
H233        H  0.03155892  0.40868029  0.57875806     0.18500
N234        N  0.04038141  0.30268162  0.55751514     0.76100
H235        H  0.06966575  0.30516243  0.61475732     0.10000
C236        C  0.08394885  0.33197921  0.68121546     0.03700
C237        C  0.10804870  0.32732327  0.70402488    -0.05000
C238        C  0.13747757  0.34128311  0.69983185    -0.23400
C239        C  0.14257644  0.36076600  0.67218437     0.13000
C240        C  0.11849277  0.36571271  0.64975713    -0.12500
N241        N  0.05418029  0.31730393  0.68649748     0.64600
H242        H  0.10370392  0.31257537  0.72528868     0.12500
N243        N  0.17239668  0.37428948  0.66526711     0.61300
H244        H  0.12295873  0.37990783  0.62805732     0.08600
O245        O  0.03281090  0.27725214  0.57093912    -0.40200
O246        O  0.04933834  0.30259651  0.52784098    -0.39400
O247        O  0.06473106  0.43714612  0.62212469    -0.39400
O248        O  0.06002179  0.40953769  0.66685834    -0.37100
O249        O  0.19469962  0.35695983  0.65658197    -0.38000
O250        O  0.17459584  0.40331067  0.66094503    -0.34100
O251        O  0.05248784  0.29174624  0.70178473    -0.35500
O252        O  0.02929713  0.33096728  0.67841074    -0.39800
C253        C  0.16326372  0.33676818  0.37761105    -0.13500
C254        C  0.13515236  0.32061173  0.37346077     0.16900
C255        C  0.13325988  0.29672828  0.34949424     0.03100
C256        C  0.15951788  0.28998565  0.33015745    -0.12000
C257        C  0.18734376  0.30705701  0.33329948    -0.03100
C258        C  0.18918304  0.33041332  0.35781156     0.02400
C259        C  0.10804349  0.32991448  0.39388022     0.09200
N260        N  0.10483902  0.27981039  0.34367073     0.65600
H261        H  0.15765822  0.27197949  0.31150896     0.18500
N262        N  0.21680374  0.34849657  0.36251725     0.76100
H263        H  0.16490802  0.35498435  0.39608610     0.10000
C264        C  0.09202654  0.30865770  0.41445548     0.03700
C265        C  0.06498405  0.31856521  0.43086702    -0.05000
C266        C  0.05419425  0.34937719  0.42824791    -0.23400
C267        C  0.07068153  0.37066011  0.40820719     0.13000
C268        C  0.09740906  0.36072146  0.39141866    -0.12500
N269        N  0.10310242  0.27736697  0.41948906     0.64600
H270        H  0.05295423  0.30235226  0.44690173     0.12500
N271        N  0.06010481  0.40202969  0.40363462     0.61300
H272        H  0.10947409  0.37695416  0.37541451     0.08600
O273        O  0.23272710  0.34487569  0.38836421    -0.40200
O274        O  0.22179454  0.37185643  0.34440333    -0.39400
O275        O  0.07898301  0.29379475  0.34305872    -0.39400
O276        O  0.10583942  0.25140545  0.33569231    -0.37100
O277        O  0.07919204  0.42433627  0.40546645    -0.38000
O278        O  0.03279749  0.40713732  0.39344378    -0.34100
O279        O  0.13195019  0.27173824  0.42068415    -0.35500
O280        O  0.08411107  0.25571050  0.42585282    -0.39800
C281        C  0.87392441  0.38833005  0.38558118    -0.13500
C282        C  0.88619327  0.39656328  0.35480392     0.16900
C283        C  0.91834588  0.40303035  0.35145668     0.03100
C284        C  0.93774413  0.39969135  0.37905425    -0.12000
C285        C  0.92557138  0.39017159  0.40949849    -0.03100
C286        C  0.89324809  0.38517896  0.41308267     0.02400
C287        C  0.86538921  0.39460200  0.32606024     0.09200
N288        N  0.93157512  0.41219376  0.32030025     0.65600
H289        H  0.96259393  0.40385001  0.37665299     0.18500
N290        N  0.87974966  0.37739341  0.44445491     0.76100
H291        H  0.84915787  0.38367793  0.38798162     0.10000
C292        C  0.86803214  0.37003338  0.30308219     0.03700
C293        C  0.84702686  0.36857251  0.27673544    -0.05000
C294        C  0.82297612  0.39051890  0.27332774    -0.23400
C295        C  0.82110471  0.41552332  0.29593689     0.13000
C296        C  0.84207832  0.41709766  0.32225068    -0.12500
N297        N  0.89086514  0.34574414  0.30686469     0.64600
H298        H  0.84851570  0.34910860  0.25981066     0.12500
N299        N  0.79835362  0.43963872  0.29237029     0.61300
H300        H  0.84033467  0.43610302  0.33974979     0.08600
O301        O  0.88762282  0.39225969  0.46995980    -0.40200
O302        O  0.85702543  0.35876983  0.44604473    -0.39400
O303        O  0.91657702  0.42959169  0.30089538    -0.39400
O304        O  0.95923101  0.40479779  0.31310066    -0.37100
O305        O  0.77899981  0.44477588  0.31518959    -0.38000
O306        O  0.79968398  0.45788253  0.26800448    -0.34100
O307        O  0.89682675  0.33465779  0.33499271    -0.35500
O308        O  0.90249842  0.33283619  0.28173263    -0.39800
C309        C  0.80906473  0.41053113  0.61049459    -0.13500
C310        C  0.83999509  0.40606340  0.62039317     0.16900
C311        C  0.84694140  0.40192320  0.65415378     0.03100
C312        C  0.82245203  0.40062163  0.67699114    -0.12000
C313        C  0.79129168  0.40269879  0.66673703    -0.03100
C314        C  0.78461624  0.40833256  0.63315388     0.02400
C315        C  0.86409441  0.40255164  0.59471059     0.09200
N316        N  0.87833690  0.39733781  0.66541870     0.65600
H317        H  0.82774048  0.39649587  0.70279954     0.18500
N318        N  0.75324962  0.40906550  0.62114006     0.76100
H319        H  0.80375893  0.41358721  0.58451311     0.10000
C320        C  0.86305360  0.37724960  0.57248529     0.03700
C321        C  0.88674460  0.37397063  0.54913064    -0.05000
C322        C  0.91195672  0.39477792  0.54787706    -0.23400
C323        C  0.91265049  0.42039461  0.56974122     0.13000
C324        C  0.88846978  0.42423119  0.59266902    -0.12500
N325        N  0.83884316  0.35410060  0.57402789     0.64600
H326        H  0.88592242  0.35425762  0.53240320     0.12500
N327        N  0.93839966  0.44161012  0.57030464     0.61300
H328        H  0.88924672  0.44362346  0.60981978     0.08600
O329        O  0.73643170  0.38500662  0.62313345    -0.40200
O330        O  0.74417095  0.43174124  0.60386328    -0.44200
O331        O  0.88733741  0.40995479  0.69186961    -0.39400
O332        O  0.89594205  0.37797522  0.65120709    -0.37100
O333        O  0.93357781  0.47052788  0.56825066    -0.38000
O334        O  0.96525179  0.43190927  0.57772498    -0.34100
O335        O  0.82818753  0.34239744  0.54779247    -0.35500
O336        O  0.83069792  0.34264259  0.60138854    -0.39800
C337        C  0.66325832  0.23299723  0.58001966    -0.13500
C338        C  0.68956852  0.25150415  0.58609227     0.16900
C339        C  0.71616838  0.24850099  0.56576857     0.03100
C340        C  0.71652336  0.22559511  0.54133528    -0.12000
C341        C  0.69069053  0.20620463  0.53584351    -0.03100
C342        C  0.66333659  0.21082684  0.55463726     0.02400
C343        C  0.69037528  0.27193553  0.61536591     0.09200
N344        N  0.74300470  0.26828004  0.56983610     0.65600
H345        H  0.73733755  0.22296874  0.52633399     0.18500
N346        N  0.63596613  0.19256106  0.54913870     0.76100
H347        H  0.64271786  0.23544676  0.59548391     0.10000
C348        C  0.67030607  0.29774043  0.61907863     0.03700
C349        C  0.67518722  0.31833329  0.64542793    -0.05000
C350        C  0.70003007  0.31412869  0.66759064    -0.23400
C351        C  0.71873568  0.28717440  0.66475522     0.13000
C352        C  0.71334417  0.26622672  0.63912044    -0.12500
N353        N  0.64603896  0.30426196  0.59568558     0.64600
H354        H  0.66035356  0.33871229  0.64756377     0.12500
N355        N  0.74467416  0.28171585  0.68610288     0.61300
H356        H  0.72851824  0.24610983  0.63657274     0.08600
O357        O  0.61900278  0.19818649  0.52444963    -0.40200
O358        O  0.62585224  0.17499765  0.57168428    -0.39400
O359        O  0.77000624  0.25781502  0.56432815    -0.39400
O360        O  0.73970439  0.29691319  0.57597716    -0.37100
O361        O  0.74458258  0.25830561  0.70490272    -0.38000
O362        O  0.76968679  0.29664546  0.68172989    -0.34100
O363        O  0.62031764  0.31517178  0.60544970    -0.35500
O364        O  0.65126028  0.30234248  0.56510707    -0.39800
C365        C  0.72932289  0.24312538  0.36903296    -0.13500
C366        C  0.70460252  0.24411470  0.34665456     0.16900
C367        C  0.67945151  0.22341234  0.35005966     0.03100
C368        C  0.67944735  0.20190838  0.37597106    -0.12000
C369        C  0.70423501  0.20076447  0.39860508    -0.03100
C370        C  0.72935305  0.22190112  0.39510188     0.02400
C371        C  0.70723188  0.26528968  0.31840493     0.09200
N372        N  0.65428344  0.22347399  0.32695320     0.65600
H373        H  0.66009176  0.18576836  0.37813025     0.18500
N374        N  0.75485285  0.22245525  0.41786133     0.76100
H375        H  0.74880576  0.25904000  0.36615371     0.10000
C376        C  0.69833290  0.29662144  0.32107399     0.03700
C377        C  0.70610847  0.31743472  0.29591903    -0.05000
C378        C  0.72296026  0.30751296  0.26802881    -0.23400
C379        C  0.73061139  0.27556282  0.26482308     0.13000
C380        C  0.72287291  0.25490555  0.29021465    -0.12500
N381        N  0.68307563  0.30788867  0.35007881     0.64600
H382        H  0.70002256  0.34178474  0.29899229     0.12500
N383        N  0.74666792  0.26377405  0.23644044     0.61300
H384        H  0.72980534  0.23065714  0.28834723     0.08600
O385        O  0.78245440  0.22014134  0.40734895    -0.40200
O386        O  0.75013926  0.22959413  0.44765449    -0.39400
O387        O  0.64846674  0.19937042  0.31026001    -0.39400
O388        O  0.63581053  0.24628496  0.32581808    -0.37100
O389        O  0.77076909  0.24728416  0.24000570    -0.38000
O390        O  0.73449884  0.26622241  0.20823591    -0.34100
O391        O  0.69808456  0.32387018  0.37078551    -0.35500
O392        O  0.65391373  0.30530273  0.35292487    -0.39800
C393        C  0.75344420  0.03407440  0.37456868    -0.13500
C394        C  0.72840263  0.02102517  0.35731554     0.16900
C395        C  0.69770333  0.03076924  0.36471969     0.03100
C396        C  0.69303116  0.05368518  0.38894622    -0.12000
C397        C  0.71822649  0.06734555  0.40571752    -0.03100
C398        C  0.74883791  0.05689691  0.39856760     0.02400
C399        C  0.73521318  0.99589927  0.33330909     0.09200
N400        N  0.67123466  0.01829689  0.34746491     0.65600
H401        H  0.66944496  0.06149795  0.39405217     0.18500
N402        N  0.77555871  0.06859956  0.41573668     0.76100
H403        H  0.77699945  0.02592830  0.36974909     0.10000
C404        C  0.75726505  0.00010125  0.30774350     0.03700
C405        C  0.76630460  0.97442004  0.28871240    -0.05000
C406        C  0.75346577  0.94469334  0.29393476    -0.23400
C407        C  0.73057316  0.94095803  0.31877894     0.13000
C408        C  0.72192840  0.96643397  0.33824302    -0.12500
N409        N  0.77051650  0.03018314  0.30070491     0.64600
H410        H  0.78341043  0.97790547  0.26930901     0.12500
N411        N  0.71610885  0.91152594  0.32499260     0.61300
H412        H  0.70528008  0.96294796  0.35811995     0.08600
O413        O  0.79816234  0.07972698  0.39963166    -0.40200
O414        O  0.77900728  0.06260074  0.44598921    -0.39400
O415        O  0.64561101  0.01465501  0.36231407    -0.39400
O416        O  0.67252064  0.01340219  0.31679151    -0.37100
O417        O  0.73031833  0.89122041  0.34166883    -0.38000
O418        O  0.68739284  0.90813512  0.31938439    -0.34100
O419        O  0.79811087  0.03236016  0.29009713    -0.35500
O420        O  0.75392780  0.05440823  0.30227360    -0.39800
C421        C  0.69550326  0.96991978  0.60910201    -0.13500
C422        C  0.70357297  0.00085915  0.61573011     0.16900
C423        C  0.71604426  0.00900754  0.64664318     0.03100
C424        C  0.72145126  0.98571413  0.66994984    -0.12000
C425        C  0.71453448  0.95438581  0.66312415    -0.03100
C426        C  0.70095451  0.94659359  0.63245420     0.02400
C427        C  0.70263487  0.02379219  0.58890840     0.09200
N428        N  0.72414414  0.04063937  0.65427518     0.65600
H429        H  0.73153356  0.99221077  0.69347455     0.18500
N430        N  0.69456763  0.91500110  0.62371976     0.76100
H431        H  0.68634283  0.96366187  0.58507502     0.10000
C432        C  0.73005638  0.03169975  0.57171235     0.03700
C433        C  0.72943993  0.05610688  0.54895404    -0.05000
C434        C  0.70174830  0.07239020  0.54252266    -0.23400
C435        C  0.67431899  0.06422553  0.55982345     0.13000
C436        C  0.67498035  0.03994590  0.58276005    -0.12500
N437        N  0.75855030  0.01501557  0.57703690     0.64600
H438        H  0.75059534  0.06177271  0.53556852     0.12500
N439        N  0.64608150  0.08136428  0.55567598     0.61300
H440        H  0.65408066  0.03430042  0.59660649     0.08600
O441        O  0.71489050  0.89923088  0.60863407    -0.40200
O442        O  0.66744243  0.90417657  0.62734236    -0.39400
O443        O  0.70496113  0.06233315  0.64898886    -0.39400
O444        O  0.74934126  0.04664578  0.66899823    -0.37100
O445        O  0.62436342  0.07021769  0.53836550    -0.38000
O446        O  0.64109246  0.10513265  0.57319058    -0.34100
O447        O  0.75922316  0.98578357  0.57387326    -0.35500
O448        O  0.78368933  0.02967003  0.58153664    -0.39800
C449        C  0.11675767  0.76676433  0.40082553    -0.13500
C450        C  0.14312534  0.78544974  0.40582071     0.16900
C451        C  0.14366067  0.80673421  0.43214857     0.03100
C452        C  0.11757209  0.80965555  0.45245955    -0.12000
C453        C  0.09100455  0.79108967  0.44776852    -0.03100
C454        C  0.09072804  0.76910216  0.42176048     0.02400
C455        C  0.16775505  0.78667177  0.38050694     0.09200
N456        N  0.17016202  0.82636004  0.43767907     0.65600
H457        H  0.11804584  0.82689468  0.47202688     0.18500
N458        N  0.06350878  0.75104001  0.41450720     0.76100
H459        H  0.11604334  0.75099525  0.37990559     0.10000
C460        C  0.19289082  0.76569657  0.38024083     0.03700
C461        C  0.21723019  0.76988417  0.35752443    -0.05000
C462        C  0.21681939  0.79477967  0.33493376    -0.23400
C463        C  0.19061503  0.81483156  0.33446560     0.13000
C464        C  0.16661686  0.81069584  0.35730421    -0.12500
N465        N  0.19437199  0.74067628  0.40344505     0.64600
H466        H  0.23687378  0.75402734  0.35813500     0.12500
N467        N  0.18835453  0.84017747  0.31175107     0.61300
H468        H  0.14711533  0.82677489  0.35735371     0.08600
O469        O  0.05467526  0.73015070  0.43430373    -0.40200
O470        O  0.05189859  0.75195334  0.38593867    -0.39400
O471        O  0.16680591  0.85549218  0.43961127    -0.39400
O472        O  0.19655788  0.81449499  0.44309566    -0.37100
O473        O  0.19395020  0.86755652  0.32136958    -0.38000
O474        O  0.17646351  0.83579971  0.28368161    -0.34100
O475        O  0.19319634  0.71286678  0.39349435    -0.35500
O476        O  0.19923498  0.74623251  0.43356098    -0.39800
C477        C  0.11667254  0.82055145  0.69822796    -0.13500
C478        C  0.12064155  0.79390996  0.67878164     0.16900
C479        C  0.14308725  0.77163531  0.68761921     0.03100
C480        C  0.16262928  0.77729143  0.71455049    -0.12000
C481        C  0.16022187  0.80506543  0.73277073    -0.03100
C482        C  0.13622524  0.82638067  0.72508885     0.02400
C483        C  0.10422096  0.79214903  0.64697717     0.09200
N484        N  0.14751724  0.74418246  0.66824926     0.65600
H485        H  0.18063501  0.76046160  0.72037198     0.18500
N486        N  0.13307105  0.85524983  0.74235691     0.76100
H487        H  0.09945341  0.83782809  0.69128770     0.10000
C488        C  0.07802059  0.77289575  0.64180139     0.03700
C489        C  0.06296080  0.77371106  0.61104896    -0.05000
C490        C  0.07340923  0.79361904  0.58583771    -0.23400
C491        C  0.10098134  0.81107002  0.59049680     0.13000
C492        C  0.11572242  0.81048412  0.62118176    -0.12500
N493        N  0.06579589  0.75348568  0.66763368     0.64600
H494        H  0.04184914  0.76021708  0.60753309     0.12500
N495        N  0.11469389  0.82874039  0.56411666     0.61300
H496        H  0.13662271  0.82426138  0.62497799     0.08600
O497        O  0.10828092  0.86106877  0.75794705    -0.40200
O498        O  0.15270161  0.87669759  0.73767757    -0.39400
O499        O  0.16267702  0.74559550  0.64160455    -0.39400
O500        O  0.13939839  0.71803439  0.67955164    -0.37100
O501        O  0.12850421  0.85408217  0.57008849    -0.38000
O502        O  0.11680659  0.81700812  0.53566354    -0.34100
O503        O  0.06398071  0.76351447  0.69684131    -0.35500
O504        O  0.05431872  0.72719215  0.66082122    -0.39800
C505        C  0.87256553  0.87079048  0.65718198    -0.13500
C506        C  0.86709117  0.85946542  0.62525526     0.16900
C507        C  0.83604358  0.85492865  0.61454365     0.03100
C508        C  0.81145387  0.86104762  0.63641682    -0.12000
C509        C  0.81693629  0.87251999  0.66831327    -0.03100
C510        C  0.84798147  0.87750893  0.67874790     0.02400
C511        C  0.89419776  0.85052425  0.60452575     0.09200
N512        N  0.82907221  0.84492889  0.58149061     0.65600
H513        H  0.78763479  0.85772711  0.62801876     0.18500
N514        N  0.85511032  0.88798145  0.71148687     0.76100
H515        H  0.89638406  0.87357313  0.66582251     0.10000
C516        C  0.91906932  0.87135703  0.59836261     0.03700
C517        C  0.94490474  0.86102902  0.58024562    -0.05000
C518        C  0.94635868  0.83068533  0.56726594    -0.23400
C519        C  0.92143901  0.81001593  0.57356731     0.13000
C520        C  0.89592888  0.81998950  0.59229304    -0.12500
N521        N  0.91812949  0.90318230  0.60939791     0.64600
H522        H  0.96369115  0.87736161  0.57542012     0.12500
N523        N  0.92126592  0.77906904  0.56062734     0.61300
H524        H  0.87720319  0.80362930  0.59739607     0.08600
O525        O  0.87534003  0.90894473  0.71577567    -0.40200
O526        O  0.84487223  0.87319650  0.73613520    -0.39400
O527        O  0.80550443  0.82810549  0.57599197    -0.39400
O528        O  0.84447044  0.85538829  0.55735628    -0.37100
O529        O  0.93484949  0.75751756  0.57610011    -0.38000
O530        O  0.90408554  0.77250918  0.53636621    -0.34100
O531        O  0.94285549  0.91667896  0.61836751    -0.35500
O532        O  0.89334338  0.91884163  0.60706276    -0.39800
C533        C  0.93453235  0.81387640  0.38020044    -0.13500
C534        C  0.92081281  0.84341965  0.37929733     0.16900
C535        C  0.92729448  0.86512567  0.40446306     0.03100
C536        C  0.94763309  0.85676247  0.42994379    -0.12000
C537        C  0.96131110  0.82705480  0.43116504    -0.03100
C538        C  0.95425734  0.80521665  0.40610489     0.02400
C539        C  0.89750242  0.85000146  0.35355000     0.09200
N540        N  0.91350624  0.89560877  0.40443671     0.65600
H541        H  0.95273252  0.87366786  0.44909096     0.18500
N542        N  0.96679307  0.77431056  0.40634607     0.76100
H543        H  0.92896786  0.79700736  0.36115024     0.10000
C544        C  0.90604902  0.85396577  0.32020249     0.03700
C545        C  0.88275096  0.85882120  0.29650765    -0.05000
C546        C  0.85118837  0.85980472  0.30557015    -0.23400
C547        C  0.84286626  0.85584777  0.33903043     0.13000
C548        C  0.86603786  0.85080162  0.36258337    -0.12500
N549        N  0.93812990  0.85331470  0.31018067     0.64600
H550        H  0.88931939  0.86181806  0.27084840     0.12500
N551        N  0.81114671  0.85825090  0.34966768     0.61300
H552        H  0.85948266  0.84775116  0.38825326     0.08600
O553        O  0.98071836  0.76422692  0.38107787    -0.40200
O554        O  0.95736325  0.75509237  0.42768942    -0.39400
O555        O  0.90465339  0.90784856  0.43116338    -0.39400
O556        O  0.91222601  0.91132793  0.37816855    -0.37100
O557        O  0.79879445  0.83636749  0.36583812    -0.38000
O558        O  0.79682203  0.88372588  0.34655014    -0.34100
O559        O  0.94600944  0.83919381  0.28417287    -0.35500
O560        O  0.95833994  0.86860949  0.32596093    -0.39800
C561        C  0.33402460  0.15057233  0.41456514    -0.13500
C562        C  0.30586868  0.15758458  0.39871961     0.16900
C563        C  0.27824347  0.14240638  0.40859569     0.03100
C564        C  0.27932976  0.12094549  0.43436380    -0.12000
C565        C  0.30717623  0.11450642  0.45125308    -0.03100
C566        C  0.33511128  0.12901996  0.44058042     0.02400
C567        C  0.30521675  0.18074436  0.37182474     0.09200
N568        N  0.24869418  0.14937382  0.39363577     0.65600
H569        H  0.25763618  0.11015387  0.44211066     0.18500
N570        N  0.36467975  0.12183299  0.45516315     0.76100
H571        H  0.35537129  0.16180183  0.40638606     0.10000
C572        C  0.31206674  0.21243550  0.37756293     0.03700
C573        C  0.30602315  0.23414547  0.35264851    -0.05000
C574        C  0.29259880  0.22508166  0.32253081    -0.23400
C575        C  0.28870706  0.19300466  0.31571457     0.13000
C576        C  0.29492579  0.17126098  0.34058418    -0.12500
N577        N  0.32297963  0.22331163  0.40904181     0.64600
H578        H  0.30953274  0.25867483  0.35799757     0.12500
N579        N  0.27847836  0.18217175  0.28398525     0.61300
H580        H  0.29083266  0.14668324  0.33591679     0.08600
O581        O  0.38352460  0.14349805  0.46189763    -0.40200
O582        O  0.37420875  0.09403294  0.45560112    -0.39400
O583        O  0.22930755  0.12782869  0.38833916    -0.39400
O584        O  0.24048848  0.17726837  0.38909088    -0.37100
O585        O  0.29046526  0.19316791  0.25802281    -0.38000
O586        O  0.26077521  0.15876324  0.28188607    -0.34100
O587        O  0.34270371  0.24509573  0.41041074    -0.35500
O588        O  0.31024599  0.21407140  0.43536606    -0.39800
C589        C  0.24013613  0.17103345  0.60650328    -0.13500
C590        C  0.26039009  0.17970224  0.63193138     0.16900
C591        C  0.28901671  0.16390528  0.63582390     0.03100
C592        C  0.29665921  0.13974081  0.61400241    -0.12000
C593        C  0.27650033  0.13115325  0.58827740    -0.03100
C594        C  0.24793015  0.14714408  0.58462143     0.02400
C595        C  0.25059831  0.20462156  0.65478727     0.09200
N596        N  0.31057676  0.17227757  0.66144347     0.65600
H597        H  0.31862669  0.12756794  0.61718755     0.18500
N598        N  0.22676068  0.13977112  0.55856648     0.76100
H599        H  0.21804509  0.18307392  0.60357022     0.10000
C600        C  0.24651764  0.23561508  0.64392134     0.03700
C601        C  0.23651114  0.25819968  0.66651882    -0.05000
C602        C  0.23068644  0.25061027  0.69962932    -0.23400
C603        C  0.23456247  0.21957537  0.71026127     0.13000
C604        C  0.24421020  0.19688173  0.68769627    -0.12500
N605        N  0.25284475  0.24459372  0.61039101     0.64600
H606        H  0.23356145  0.28206680  0.65822551     0.12500
N607        N  0.23012820  0.21102670  0.74407240     0.61300
H608        H  0.24725248  0.17302717  0.69601591     0.08600
O609        O  0.23256088  0.14858225  0.52950912    -0.40200
O610        O  0.20081231  0.12737804  0.56511687    -0.39400
O611        O  0.32604581  0.15145539  0.67606607    -0.39400
O612        O  0.31626628  0.20053657  0.66756295    -0.37100
O613        O  0.21146355  0.18940644  0.75147872    -0.38000
O614        O  0.24724539  0.22271572  0.76614167    -0.34100
O615        O  0.23648087  0.26526434  0.59664091    -0.35500
O616        O  0.27639623  0.23405349  0.59541521    -0.39800
C617        C  0.30175756  0.98260377  0.66336118    -0.13500
C618        C  0.27810652  0.96026517  0.66059050     0.16900
C619        C  0.26048845  0.95830027  0.63154320     0.03100
C620        C  0.26643606  0.97886045  0.60575485    -0.12000
C621        C  0.28963680  0.00180451  0.60841197    -0.03100
C622        C  0.30750663  0.00383551  0.63769193     0.02400
C623        C  0.27177768  0.93878897  0.68801578     0.09200
N624        N  0.23691695  0.93502326  0.62773536     0.65600
H625        H  0.25267927  0.97685222  0.58341584     0.18500
N626        N  0.33018933  0.02802359  0.64250786     0.76100
H627        H  0.31509933  0.98408871  0.68601905     0.10000
C628        C  0.28944593  0.91152925  0.69249076     0.03700
C629        C  0.28085989  0.89060896  0.71734195    -0.05000
C630        C  0.25479766  0.89611980  0.73766280    -0.23400
C631        C  0.23837748  0.92454651  0.73426806     0.13000
C632        C  0.24686181  0.94531419  0.70920272    -0.12500
N633        N  0.31547105  0.90429556  0.67152065     0.64600
H634        H  0.29407345  0.86922896  0.71988292     0.12500
N635        N  0.21300921  0.93269500  0.75560459     0.61300
H636        H  0.23376714  0.96671295  0.70603637     0.08600
O637        O  0.35513883  0.02224018  0.65778206    -0.40200
O638        O  0.32330519  0.05598250  0.63626097    -0.39400
O639        O  0.21079004  0.93834961  0.64160007    -0.39400
O640        O  0.24117864  0.91261208  0.60811828    -0.37100
O641        O  0.21805198  0.93699343  0.78592971    -0.38000
O642        O  0.18762501  0.94196688  0.74337062    -0.34100
O643        O  0.33991263  0.89270190  0.68368350    -0.35500
O644        O  0.31305885  0.90649211  0.64058458    -0.39800
C645        C  0.31709127  0.93080030  0.36396172    -0.13500
C646        C  0.32936363  0.92041827  0.39400335     0.16900
C647        C  0.33688935  0.88873101  0.39801270     0.03100
C648        C  0.33075395  0.86786029  0.37230798    -0.12000
C649        C  0.31746758  0.87791645  0.34245084    -0.03100
C650        C  0.31134869  0.91005055  0.33801606     0.02400
C651        C  0.32962177  0.94207917  0.42227317     0.09200
N652        N  0.35013176  0.87743784  0.42823747     0.65600
H653        H  0.33588296  0.84335036  0.37606436     0.18500
N654        N  0.29912806  0.92200482  0.30765606     0.76100
H655        H  0.31115866  0.95524282  0.36096723     0.10000
C656        C  0.34741845  0.96963127  0.42189046     0.03700
C657        C  0.34341656  0.99160629  0.44703584    -0.05000
C658        C  0.32190628  0.98646197  0.47253679    -0.23400
C659        C  0.30512101  0.95815047  0.47382415     0.13000
C660        C  0.30907706  0.93638524  0.44846488    -0.12500
N661        N  0.36903951  0.97575353  0.39577618     0.64600
H662        H  0.35627235  0.01338963  0.44593666     0.12500
N663        N  0.28406163  0.95127970  0.50050389     0.61300
H664        H  0.29549506  0.91502411  0.44871684     0.08600
O665        O  0.31376023  0.91763732  0.28102513    -0.40200
O666        O  0.27641606  0.94067087  0.30807519    -0.39400
O667        O  0.34136924  0.85171347  0.44012667    -0.39400
O668        O  0.37183854  0.89226883  0.44218599    -0.37100
O669        O  0.29086020  0.95899529  0.52966230    -0.38000
O670        O  0.26031906  0.93453828  0.49559106    -0.34100
O671        O  0.36671879  0.00035296  0.37894139    -0.35500
O672        O  0.39152288  0.95743470  0.39069077    -0.39800
C673        C  0.77882044  0.52783458  0.07281743    -0.13500
C674        C  0.80731959  0.51409014  0.08079044     0.16900
C675        C  0.83470670  0.52331040  0.06423173     0.03100
C676        C  0.83289637  0.54699845  0.04045817    -0.12000
C677        C  0.80433299  0.56146749  0.03299298    -0.03100
C678        C  0.77686756  0.55096654  0.04891752     0.02400
C679        C  0.80673084  0.48896733  0.10536828     0.09200
N680        N  0.86436501  0.50955774  0.07182291     0.65600
H681        H  0.85412043  0.55470682  0.02839631     0.18500
N682        N  0.74669303  0.56302280  0.04092474     0.76100
H683        H  0.75763160  0.51996508  0.08491345     0.10000
C684        C  0.79703649  0.49519001  0.13793120     0.03700
C685        C  0.78869748  0.47039516  0.15839914    -0.05000
C686        C  0.79023634  0.43952302  0.14717427    -0.23400
C687        C  0.80172315  0.43335169  0.11517595     0.13000
C688        C  0.80969592  0.45816494  0.09450132    -0.12500
N689        N  0.79439450  0.52657296  0.14993183     0.64600
H690        H  0.78053895  0.47532946  0.18319097     0.12500
N691        N  0.80280833  0.40236727  0.10232259     0.61300
H692        H  0.81653633  0.45345486  0.06921212     0.08600
O693        O  0.72983701  0.57454489  0.06334722    -0.40200
O694        O  0.73474862  0.55687048  0.01324296    -0.39400
O695        O  0.88429251  0.50543546  0.04931228    -0.39400
O696        O  0.87171661  0.50371938  0.10131736    -0.37100
O697        O  0.78352098  0.39405603  0.08056515    -0.38000
O698        O  0.82568699  0.38503329  0.10894975    -0.34100
O699        O  0.77224275  0.53408076  0.16884257    -0.35500
O700        O  0.81505181  0.54649689  0.14306828    -0.39800
C701        C  0.82252980  0.78868696  0.12086188    -0.13500
C702        C  0.81433048  0.75806436  0.12869488     0.16900
C703        C  0.80651264  0.75021410  0.16146806     0.03100
C704        C  0.80569269  0.77377942  0.18544733    -0.12000
C705        C  0.81217689  0.80494639  0.17726260    -0.03100
C706        C  0.82184854  0.81209955  0.14473840     0.02400
C707        C  0.81243613  0.73529293  0.10163238     0.09200
N708        N  0.79785763  0.71900001  0.17044359     0.65600
H709        H  0.79826460  0.76795167  0.21026378     0.18500
N710        N  0.82929013  0.84323801  0.13494458     0.76100
H711        H  0.82882024  0.79458655  0.09569383     0.10000
C712        C  0.78758427  0.73657023  0.07906216     0.03700
C713        C  0.78662924  0.71559517  0.05278861    -0.05000
C714        C  0.81010273  0.69320855  0.04854319    -0.23400
C715        C  0.83523117  0.69223089  0.07097507     0.13000
C716        C  0.83621529  0.71333034  0.09732361    -0.12500
N717        N  0.76315062  0.75902458  0.08266782     0.64600
H718        H  0.76733559  0.71681960  0.03558304     0.12500
N719        N  0.85933145  0.66944471  0.06789652     0.61300
H720        H  0.85549287  0.71252190  0.11457057     0.08600
O721        O  0.81312915  0.85661034  0.11317043    -0.40200
O722        O  0.85474549  0.85527149  0.14390739    -0.39400
O723        O  0.80583491  0.70811335  0.19808529    -0.39400
O724        O  0.77970606  0.70336594  0.15239546    -0.37100
O725        O  0.88671292  0.67776406  0.06070034    -0.38000
O726        O  0.85385842  0.64137001  0.07504849    -0.34100
O727        O  0.75711808  0.77760794  0.05943654    -0.35500
O728        O  0.74636113  0.75910578  0.10824938    -0.39800
C729        C  0.78484458  0.77212051  0.80633100    -0.13500
C730        C  0.78642086  0.78085471  0.83953602     0.16900
C731        C  0.78386549  0.81247285  0.84858648     0.03100
C732        C  0.77879853  0.83463321  0.82388139    -0.12000
C733        C  0.77547439  0.82572020  0.79076348    -0.03100
C734        C  0.77972116  0.79424559  0.78165918     0.02400
C735        C  0.78956495  0.75615103  0.86425163     0.09200
N736        N  0.78466421  0.82224107  0.88254185     0.65600
H737        H  0.77535229  0.85879104  0.83086411     0.18500
N738        N  0.77952456  0.78454096  0.74770584     0.76100
H739        H  0.78760246  0.74778591  0.79967757     0.10000
C740        C  0.76421033  0.73645123  0.87151907     0.03700
C741        C  0.76839564  0.71218039  0.89392110    -0.05000
C742        C  0.79720201  0.70728488  0.90950013    -0.23400
C743        C  0.82252301  0.72707683  0.90201209     0.13000
C744        C  0.81848917  0.75127542  0.87933374    -0.12500
N745        N  0.73418300  0.74083229  0.85649407     0.64600
H746        H  0.74877373  0.69705316  0.89928750     0.12500
N747        N  0.85218275  0.72327740  0.91751683     0.61300
H748        H  0.83798348  0.76642225  0.87347351     0.08600
O749        O  0.76930921  0.75795369  0.73995978    -0.40200
O750        O  0.79326668  0.80066167  0.72607819    -0.39400
O751        O  0.79564611  0.84858409  0.89003535    -0.39400
O752        O  0.77131847  0.80633030  0.90460963    -0.37100
O753        O  0.87565979  0.71582209  0.90049401    -0.38000
O754        O  0.85560401  0.73057130  0.94744670    -0.34100
O755        O  0.71783292  0.71754901  0.84861258    -0.35500
O756        O  0.72265830  0.76775520  0.85386863    -0.39800
C757        C  0.80920375  0.53215319  0.86184559    -0.13500
C758        C  0.77956051  0.53017761  0.84756672     0.16900
C759        C  0.75641010  0.55208865  0.85612190     0.03100
C760        C  0.76322322  0.57482402  0.87971475    -0.12000
C761        C  0.79229922  0.57582378  0.89553922    -0.03100
C762        C  0.81584658  0.55466654  0.88582882     0.02400
C763        C  0.77246492  0.50383082  0.82553286     0.09200
N764        N  0.72562187  0.55090502  0.84218846     0.65600
H765        H  0.74511813  0.59117657  0.88668545     0.18500
N766        N  0.84590219  0.55445778  0.90118652     0.76100
H767        H  0.82692194  0.51525583  0.85520756     0.10000
C768        C  0.76442421  0.50829951  0.79210112     0.03700
C769        C  0.75242701  0.48307503  0.77417092    -0.05000
C770        C  0.74898311  0.45358868  0.78867891    -0.23400
C771        C  0.75768632  0.44915511  0.82192213     0.13000
C772        C  0.76970295  0.47426002  0.83981473    -0.12500
N773        N  0.76829408  0.53803465  0.77618227     0.64600
H774        H  0.74650535  0.48624741  0.74840453     0.12500
N775        N  0.75255343  0.42004144  0.83845348     0.61300
H776        H  0.77519161  0.47117146  0.86571373     0.08600
O777        O  0.87016395  0.55447437  0.88355029    -0.40200
O778        O  0.84820763  0.54889771  0.93165460    -0.39400
O779        O  0.71126509  0.52533390  0.83987832    -0.39400
O780        O  0.71133487  0.57583462  0.83565201    -0.37100
O781        O  0.77256571  0.40974954  0.85845996    -0.38000
O782        O  0.72628068  0.40691011  0.83672530    -0.34100
O783        O  0.79032608  0.55594117  0.78432051    -0.35500
O784        O  0.75136256  0.54536703  0.75195924    -0.39800
C785        C  0.69469453  0.91238662  0.12157389    -0.13500
C786        C  0.66803548  0.89372381  0.12431679     0.16900
C787        C  0.66553322  0.87217776  0.15043145     0.03100
C788        C  0.69007456  0.86937957  0.17289355    -0.12000
C789        C  0.71708751  0.88777953  0.17024435    -0.03100
C790        C  0.71929130  0.90951445  0.14408056     0.02400
C791        C  0.64380556  0.89523354  0.09856224     0.09200
N792        N  0.63815731  0.85323506  0.15463015     0.65600
H793        H  0.68774740  0.85275885  0.19288845     0.18500
N794        N  0.74645755  0.92832435  0.13947251     0.76100
H795        H  0.69675640  0.92870215  0.10123999     0.10000
C796        C  0.62416264  0.92133949  0.09489950     0.03700
C797        C  0.59969712  0.92000546  0.07203684    -0.05000
C798        C  0.59427210  0.89313259  0.05305065    -0.23400
C799        C  0.61568558  0.86811683  0.05490256     0.13000
C800        C  0.63983914  0.86932074  0.07801968    -0.12500
N801        N  0.62763835  0.94857201  0.11520140     0.64600
H802        H  0.58363905  0.93946888  0.07061910     0.12500
N803        N  0.61356206  0.84163477  0.03336773     0.61300
H804        H  0.65575482  0.84977314  0.08012790     0.08600
O805        O  0.74449105  0.95753609  0.14206767    -0.40200
O806        O  0.77072177  0.91640756  0.12720223    -0.39400
O807        O  0.64059585  0.82558214  0.16485487    -0.39400
O808        O  0.61135655  0.86483683  0.15098159    -0.37100
O809        O  0.61074687  0.84557626  0.00265572    -0.38000
O810        O  0.61918998  0.81467747  0.04424392    -0.34100
O811        O  0.62234339  0.97521802  0.10332999    -0.35500
O812        O  0.63295281  0.94600521  0.14569421    -0.39800
C813        C  0.42533643  0.88438983  0.12897111    -0.13500
C814        C  0.43467943  0.85982544  0.14961162     0.16900
C815        C  0.46175629  0.84265458  0.14132402     0.03100
C816        C  0.47747222  0.84942807  0.11181880    -0.12000
C817        C  0.46767935  0.87356129  0.09093523    -0.03100
C818        C  0.44155786  0.89166010  0.09998563     0.02400
C819        C  0.41353927  0.85025611  0.17700022     0.09200
N820        N  0.47364133  0.81858845  0.16255250     0.65600
H821        H  0.49806471  0.83592104  0.10526448     0.18500
N822        N  0.42994581  0.91606117  0.07917174     0.76100
H823        H  0.40404743  0.89718686  0.13457964     0.10000
C824        C  0.40013828  0.87232183  0.19880281     0.03700
C825        C  0.37552186  0.86308561  0.21939656    -0.05000
C826        C  0.36510245  0.83218207  0.22012389    -0.23400
C827        C  0.37980461  0.80967640  0.20010645     0.13000
C828        C  0.40350390  0.81910916  0.17849957    -0.12500
N829        N  0.41136919  0.90387752  0.20045317     0.64600
H830        H  0.36458959  0.88016818  0.23562023     0.12500
N831        N  0.36986037  0.77771585  0.19997077     0.61300
H832        H  0.41314418  0.80207487  0.16134511     0.08600
O833        O  0.42080127  0.94133365  0.09180010    -0.40200
O834        O  0.42437547  0.91076909  0.04912621    -0.39400
O835        O  0.48780201  0.79547289  0.15046681    -0.39400
O836        O  0.47253524  0.82165461  0.19349899    -0.37100
O837        O  0.38970766  0.75620215  0.19703268    -0.38000
O838        O  0.34124277  0.77098262  0.19901645    -0.34100
O839        O  0.39317213  0.92571192  0.20845861    -0.35500
O840        O  0.44004723  0.90966384  0.19708997    -0.39800
C841        C  0.32017695  0.87734964  0.90594018    -0.13500
C842        C  0.35005519  0.86828239  0.89579893     0.16900
C843        C  0.35382220  0.85127987  0.86636098     0.03100
C844        C  0.32752813  0.84259916  0.84834746    -0.12000
C845        C  0.29735514  0.85086744  0.85863458    -0.03100
C846        C  0.29368530  0.86865030  0.88784316     0.02400
C847        C  0.37675070  0.87270713  0.91820086     0.09200
N848        N  0.38421932  0.84270469  0.85451768     0.65600
H849        H  0.33088643  0.82968196  0.82562579     0.18500
N850        N  0.26348651  0.87667816  0.90043760     0.76100
H851        H  0.31735057  0.88988582  0.92899545     0.10000
C852        C  0.38895870  0.90233921  0.92576677     0.03700
C853        C  0.41546531  0.90445002  0.94590719    -0.05000
C854        C  0.43013701  0.87758752  0.95833669    -0.23400
C855        C  0.41648626  0.84812445  0.95219744     0.13000
C856        C  0.39030024  0.84608970  0.93193566    -0.12500
N857        N  0.37569028  0.93019282  0.91211948     0.64600
H858        H  0.42550678  0.92723357  0.95055795     0.12500
N859        N  0.42844074  0.82010921  0.96666440     0.61300
H860        H  0.38020633  0.82337255  0.92690794     0.08600
O861        O  0.25845968  0.90386956  0.91100308    -0.40200
O862        O  0.24381801  0.85552697  0.90636204    -0.39400
O863        O  0.38845337  0.81657025  0.84098420    -0.39400
O864        O  0.40633939  0.86209017  0.85521912    -0.37100
O865        O  0.43020952  0.81774148  0.99763994    -0.38000
O866        O  0.43221142  0.79614254  0.94907700    -0.34100
O867        O  0.37386001  0.95456604  0.92941906    -0.35500
O868        O  0.36841107  0.93141167  0.88199062    -0.39800
C869        C  0.65123567  0.92059580  0.84339520    -0.13500
C870        C  0.62353010  0.90422904  0.83789348     0.16900
C871        C  0.61946952  0.88769976  0.80813129     0.03100
C872        C  0.64389255  0.88686942  0.78509983    -0.12000
C873        C  0.67235765  0.90213988  0.79108473    -0.03100
C874        C  0.67587739  0.91926010  0.82075475     0.02400
C875        C  0.60141665  0.90075278  0.86564859     0.09200
N876        N  0.59103912  0.87118588  0.80136617     0.65600
H877        H  0.64063108  0.87391631  0.76240613     0.18500
N878        N  0.70494266  0.93333168  0.82967124     0.76100
H879        H  0.65460128  0.93264212  0.86664884     0.10000
C880        C  0.59860608  0.87219716  0.88265860     0.03700
C881        C  0.57740221  0.86983278  0.90880724    -0.05000
C882        C  0.55936503  0.89541263  0.91905496    -0.23400
C883        C  0.56169204  0.92373574  0.90133646     0.13000
C884        C  0.58302801  0.92618057  0.87515736    -0.12500
N885        N  0.61785551  0.84580805  0.87462442     0.64600
H886        H  0.57619643  0.84807750  0.92229809     0.12500
N887        N  0.54218356  0.94987561  0.90894180     0.61300
H888        H  0.58488309  0.94790114  0.86166420     0.08600
O889        O  0.72827519  0.91628907  0.83541150    -0.40200
O890        O  0.70561960  0.96155756  0.83830534    -0.39400
O891        O  0.56502768  0.88311414  0.80858587    -0.39400
O892        O  0.59172105  0.84553677  0.78616570    -0.37100
O893        O  0.55369067  0.97690736  0.91013617    -0.38000
O894        O  0.51294128  0.94665435  0.90946349    -0.34100
O895        O  0.64644518  0.84939809  0.86828706    -0.35500
O896        O  0.60723374  0.81853904  0.87769261    -0.39800
C897        C  0.23390920  0.72395440  0.16882126    -0.13500
C898        C  0.24492234  0.69383234  0.17513493     0.16900
C899        C  0.26543163  0.68872171  0.20175350     0.03100
C900        C  0.27492044  0.71406463  0.22099663    -0.12000
C901        C  0.26427568  0.74446449  0.21464194    -0.03100
C902        C  0.24349932  0.74932235  0.18803545     0.02400
C903        C  0.23783740  0.66877413  0.15130248     0.09200
N904        N  0.27656614  0.65801983  0.20969801     0.65600
H905        H  0.29051952  0.70975682  0.24152091     0.18500
N906        N  0.23254232  0.77975052  0.17951102     0.76100
H907        H  0.21866410  0.72797214  0.14790106     0.10000
C908        C  0.20716760  0.65825989  0.14535822     0.03700
C909        C  0.20212051  0.63549406  0.12105449    -0.05000
C910        C  0.22694273  0.62296591  0.10264035    -0.23400
C911        C  0.25753099  0.63422842  0.10841960     0.13000
C912        C  0.26254369  0.65656937  0.13286302    -0.12500
N913        N  0.18116721  0.66989440  0.16408560     0.64600
H914        H  0.17858171  0.62708969  0.11696723     0.12500
N915        N  0.28364427  0.62438300  0.08895507     0.61300
H916        H  0.28600641  0.66531992  0.13683096     0.08600
O917        O  0.25133956  0.79951153  0.16783410    -0.40200
O918        O  0.20363109  0.78479484  0.17759431    -0.39400
O919        O  0.30341675  0.65441351  0.22179730    -0.39400
O920        O  0.25872359  0.63473687  0.20739251    -0.37100
O921        O  0.28442628  0.63067151  0.05854978    -0.38000
O922        O  0.30822724  0.61529595  0.10303711    -0.34100
O923        O  0.15467333  0.67230377  0.15083345    -0.35500
O924        O  0.18386659  0.67527262  0.19456104    -0.39800
C925        C  0.23577065  0.44020624  0.12073736    -0.13500
C926        C  0.20968580  0.43513311  0.14076933     0.16900
C927        C  0.18456261  0.45627098  0.14002345     0.03100
C928        C  0.18616189  0.48208255  0.11892528    -0.12000
C929        C  0.21223514  0.48720869  0.09856588    -0.03100
C930        C  0.23739642  0.46600832  0.09986988     0.02400
C931        C  0.21085216  0.40940252  0.16468572     0.09200
N932        N  0.15734320  0.45172374  0.16019578     0.65600
H933        H  0.16660289  0.49806669  0.11813641     0.18500
N934        N  0.26476254  0.47023002  0.08023852     0.76100
H935        H  0.25540853  0.42430003  0.12189687     0.10000
C936        C  0.20856437  0.37820910  0.15447134     0.03700
C937        C  0.21278613  0.35431067  0.17741954    -0.05000
C938        C  0.22009448  0.36111467  0.21038046    -0.23400
C939        C  0.22038409  0.39251057  0.22099275     0.13000
C940        C  0.21600960  0.41631245  0.19792579    -0.12500
N941        N  0.20293784  0.37062747  0.12069398     0.64600
H942        H  0.21199203  0.33030857  0.16896642     0.12500
N943        N  0.22474198  0.40046363  0.25503175     0.61300
H944        H  0.21705529  0.44048427  0.20586342     0.08600
O945        O  0.28656961  0.48729403  0.09069234    -0.40200
O946        O  0.26913337  0.45336127  0.05517721    -0.39400
O947        O  0.14286834  0.47488711  0.17172781    -0.39400
O948        O  0.14616837  0.42480273  0.16432194    -0.37100
O949        O  0.24176558  0.42325829  0.26290999    -0.38000
O950        O  0.20875017  0.38703306  0.27696441    -0.34100
O951        O  0.22556175  0.36576595  0.10146821    -0.35500
O952        O  0.17547915  0.36570052  0.11091774    -0.39800
C953        C  0.20540080  0.43389284  0.85625621    -0.13500
C954        C  0.18754303  0.42645971  0.88409969     0.16900
C955        C  0.16843507  0.39964408  0.88353916     0.03100
C956        C  0.16897434  0.38015999  0.85564792    -0.12000
C957        C  0.18856189  0.38651225  0.82858746    -0.03100
C958        C  0.20619050  0.41440392  0.82873268     0.02400
C959        C  0.19004521  0.44713361  0.91329855     0.09200
N960        N  0.14977629  0.39094382  0.91151382     0.65600
H961        H  0.15530720  0.35888456  0.85602011     0.18500
N962        N  0.22589211  0.42291400  0.80169249     0.76100
H963        H  0.21948955  0.45492816  0.85617562     0.10000
C964        C  0.21939589  0.45351521  0.92757394     0.03700
C965        C  0.22181663  0.47682585  0.95155182    -0.05000
C966        C  0.19559539  0.49347932  0.96254483    -0.23400
C967        C  0.16605222  0.48593258  0.94933961     0.13000
C968        C  0.16360261  0.46300872  0.92480400    -0.12500
N969        N  0.24683909  0.43637832  0.91820039     0.64600
H970        H  0.24452993  0.48153542  0.96218833     0.12500
N971        N  0.13851625  0.50196280  0.95963878     0.61300
H972        H  0.14102640  0.45834498  0.91378698     0.08600
O973        O  0.21397651  0.43200610  0.77493923    -0.40200
O974        O  0.25494145  0.42519449  0.80589894    -0.39400
O975        O  0.12331809  0.37872946  0.90726981    -0.39400
O976        O  0.16085786  0.39241967  0.94029730    -0.37100
O977        O  0.11694555  0.48721541  0.97394447    -0.38000
O978        O  0.13404975  0.52976301  0.95075517    -0.34100
O979        O  0.27315218  0.44954882  0.91805226    -0.35500
O980        O  0.24536086  0.40741731  0.91305926    -0.39800
C981        C  0.20394346  0.70132226  0.87009063    -0.13500
C982        C  0.20158967  0.70758802  0.90385554     0.16900
C983        C  0.19832221  0.73861654  0.91494805     0.03100
C984        C  0.19882687  0.76284307  0.89171310    -0.12000
C985        C  0.20307937  0.75661941  0.85801485    -0.03100
C986        C  0.20417466  0.72541917  0.84693100     0.02400
C987        C  0.20261249  0.68096509  0.92671116     0.09200
N988        N  0.19590984  0.74600927  0.94947334     0.65600
H989        H  0.19810927  0.78676105  0.90024053     0.18500
N990        N  0.20514836  0.71787428  0.81237686     0.76100
H991        H  0.20534324  0.67736684  0.86175569     0.10000
C992        C  0.17590216  0.67050176  0.94369180     0.03700
C993        C  0.17841816  0.64474324  0.96474276    -0.05000
C994        C  0.20689866  0.62897213  0.96891358    -0.23400
C995        C  0.23358131  0.64000151  0.95204244     0.13000
C996        C  0.23113002  0.66576498  0.93119900    -0.12500
N997        N  0.14619325  0.68546590  0.93963879     0.64600
H998        H  0.15775072  0.63679760  0.97766024     0.12500
N999        N  0.26334024  0.62545422  0.95569323     0.61300
H1000       H  0.25169825  0.67397147  0.91823480     0.08600
O1001       O  0.18825254  0.73254334  0.79219486    -0.40200
O1002       O  0.21999955  0.69427048  0.80250372    -0.39400
O1003       O  0.21195409  0.73145396  0.97049571    -0.39400
O1004       O  0.17999968  0.76913870  0.95873523    -0.37100
O1005       O  0.26907944  0.60037608  0.94064782    -0.38000
O1006       O  0.28518407  0.63986865  0.96986181    -0.34100
O1007       O  0.13695728  0.69362331  0.91138737    -0.35500
O1008       O  0.12792974  0.68815448  0.96390758    -0.39800
C1009       C  0.40459188  0.31085724  0.11685037    -0.13500
C1010       C  0.38947611  0.28207141  0.12009677     0.16900
C1011       C  0.39401882  0.25882341  0.09592834     0.03100
C1012       C  0.41389567  0.26490922  0.06926414    -0.12000
C1013       C  0.42921103  0.29366927  0.06614415    -0.03100
C1014       C  0.42441307  0.31682029  0.09029519     0.02400
C1015       C  0.36683257  0.27828659  0.14725554     0.09200
N1016       N  0.37861022  0.22917933  0.09802466     0.65600
H1017       H  0.41720025  0.24703332  0.05061567     0.18500
N1018       N  0.43969974  0.34635467  0.08841142     0.76100
H1019       H  0.40067668  0.32905749  0.13503125     0.10000
C1020       C  0.37544991  0.28324163  0.18047395     0.03700
C1021       C  0.35207426  0.28548571  0.20452315    -0.05000
C1022       C  0.32052469  0.28203447  0.19629390    -0.23400
C1023       C  0.31213868  0.27577252  0.16322043     0.13000
C1024       C  0.33542642  0.27388240  0.13917945    -0.12500
N1025       N  0.40763649  0.28587053  0.19004019     0.64600
H1026       H  0.35858688  0.28952588  0.23005724     0.12500
N1027       N  0.28016819  0.27370831  0.15312481     0.61300
H1028       H  0.32878381  0.27081812  0.11351785     0.08600
O1029       O  0.46815138  0.34860037  0.09586560    -0.40200
O1030       O  0.42405353  0.37065052  0.08281788    -0.39400
O1031       O  0.36823651  0.21628249  0.07229399    -0.39400
O1032       O  0.37709359  0.21484584  0.12515611    -0.37100
O1033       O  0.26144969  0.29531965  0.16030673    -0.38000
O1034       O  0.27199089  0.25333084  0.13242398    -0.34100
O1035       O  0.41520554  0.30219274  0.21466425    -0.35500
O1036       O  0.42825456  0.26972053  0.17584641    -0.39800
C1037       C  0.59362020  0.30390127  0.08292716    -0.13500
C1038       C  0.61032532  0.33170674  0.07937810     0.16900
C1039       C  0.60144929  0.35348371  0.05523798     0.03100
C1040       C  0.57521784  0.34759221  0.03580930    -0.12000
C1041       C  0.55757145  0.32037346  0.04023593    -0.03100
C1042       C  0.56705725  0.29816594  0.06386780     0.02400
C1043       C  0.63654108  0.33809236  0.10167170     0.09200
N1044       N  0.61879515  0.38161475  0.05029924     0.65600
H1045       H  0.56837952  0.36456713  0.01737820     0.18500
N1046       N  0.54908970  0.27064767  0.07008040     0.76100
H1047       H  0.60055527  0.28718316  0.10157839     0.10000
C1048       C  0.63151467  0.35279640  0.13220213     0.03700
C1049       C  0.65700338  0.36038344  0.15201996    -0.05000
C1050       C  0.68754825  0.35267508  0.14248518    -0.23400
C1051       C  0.69242824  0.33762893  0.11179889     0.13000
C1052       C  0.66686657  0.33093731  0.09153837    -0.12500
N1053       N  0.60069588  0.36048441  0.14314409     0.64600
H1054       H  0.65272429  0.37172640  0.17549720     0.12500
N1055       N  0.72298273  0.32963469  0.10038783     0.61300
H1056       H  0.67065198  0.31989696  0.06779826     0.08600
O1057       O  0.52092163  0.27289910  0.07878177    -0.40200
O1058       O  0.56225615  0.24438891  0.07073868    -0.39400
O1059       O  0.62940676  0.38810928  0.02208224    -0.39400
O1060       O  0.62146885  0.40113516  0.07339399    -0.37100
O1061       O  0.73696184  0.30672601  0.11303747    -0.38000
O1062       O  0.73256514  0.34040222  0.07324490    -0.34100
O1063       O  0.58069189  0.33927470  0.14722511    -0.35500
O1064       O  0.59448756  0.38789251  0.15224247    -0.39800
C1065       C  0.63055934  0.33316787  0.83854526    -0.13500
C1066       C  0.60009517  0.33960703  0.82823794     0.16900
C1067       C  0.59514270  0.35533608  0.79806959     0.03100
C1068       C  0.62101706  0.36495220  0.77951641    -0.12000
C1069       C  0.65158472  0.35823404  0.78970087    -0.03100
C1070       C  0.65618672  0.34166275  0.81939596     0.02400
C1071       C  0.57431431  0.33223647  0.85114313     0.09200
N1072       N  0.56425634  0.36114901  0.78570929     0.65600
H1073       H  0.61715641  0.37701203  0.75635586     0.18500
N1074       N  0.68663567  0.33359727  0.83082746     0.76100
H1075       H  0.63452161  0.32150481  0.86194122     0.10000
C1076       C  0.57058546  0.30215111  0.86471027     0.03700
C1077       C  0.54954197  0.29789794  0.89074608    -0.05000
C1078       C  0.53146276  0.32266095  0.90290670    -0.23400
C1079       C  0.53355129  0.35211246  0.88737633     0.13000
C1080       C  0.55549740  0.35669349  0.86235466    -0.12500
N1081       N  0.58811077  0.27593905  0.85260813     0.64600
H1082       H  0.54756418  0.27497845  0.90182870     0.12500
N1083       N  0.51369049  0.37754690  0.89650195     0.61300
H1084       H  0.55818093  0.37977475  0.85176773     0.08600
O1085       O  0.69955781  0.30924651  0.82002894    -0.40200
O1086       O  0.69730853  0.34651400  0.85638097    -0.39400
O1087       O  0.55894834  0.38484652  0.76817324    -0.39400
O1088       O  0.54292805  0.34120313  0.78952287    -0.37100
O1089       O  0.52516621  0.40425762  0.90115629    -0.38000
O1090       O  0.48449399  0.37463123  0.89424976    -0.34100
O1091       O  0.59542344  0.25398581  0.87180297    -0.35500
O1092       O  0.59400304  0.27328726  0.82222115    -0.39800
C1093       C  0.33138140  0.28816387  0.83382759    -0.13500
C1094       C  0.32474462  0.28578539  0.86755307     0.16900
C1095       C  0.29358295  0.28628443  0.87862637     0.03100
C1096       C  0.26967045  0.29027781  0.85559445    -0.12000
C1097       C  0.27635181  0.29392784  0.82193988    -0.03100
C1098       C  0.30748452  0.29205737  0.81082918     0.02400
C1099       C  0.35085697  0.28760859  0.89088153     0.09200
N1100       N  0.28606228  0.28373882  0.91308059     0.65600
H1101       H  0.24574576  0.29164737  0.86416936     0.18500
N1102       N  0.31516101  0.29427970  0.77646478     0.76100
H1103       H  0.35542076  0.28786476  0.82546695     0.10000
C1104       C  0.37348014  0.26390329  0.89322319     0.03700
C1105       C  0.39984163  0.26894808  0.91290750    -0.05000
C1106       C  0.40401878  0.29706759  0.93014991    -0.23400
C1107       C  0.38096900  0.32044762  0.92777405     0.13000
C1108       C  0.35465475  0.31538410  0.90843044    -0.12500
N1109       N  0.36996354  0.23479659  0.87603108     0.64600
H1110       H  0.41722865  0.25070664  0.91472531     0.12500
N1111       N  0.38404089  0.34967532  0.94432639     0.61300
H1112       H  0.33744276  0.33378790  0.90617372     0.08600
O1113       O  0.30183238  0.27681971  0.75577360    -0.40200
O1114       O  0.33717782  0.31168202  0.76710812    -0.39400
O1115       O  0.26372813  0.29917489  0.92507465    -0.39400
O1116       O  0.30046639  0.26471422  0.93123786    -0.37100
O1117       O  0.36793037  0.35512261  0.96973061    -0.38000
O1118       O  0.39847265  0.37169225  0.93044924    -0.34100
O1119       O  0.39367448  0.22010150  0.86613820    -0.35500
O1120       O  0.34344004  0.22237811  0.87306978    -0.39800
loop_ 
_geom_bond_atom_site_label_1 
_geom_bond_atom_site_label_2 
_geom_bond_distance 
_geom_bond_site_symmetry_2 
_ccdc_geom_bond_type 
O1            V9   1.893   1_554  S
O1           C11   1.263       .  A
O2            V9   1.893       .  S
O2           C12   1.264       .  A
O3            V9   1.897   1_554  S
O3           C13   1.264       .  A
O4            V9   1.894       .  S
O4           C14   1.264       .  A
O5           V10   1.890       .  S
O5           C14   1.262       .  A
O6           V10   1.891   1_554  S
O6           C13   1.262       .  A
O7           V10   1.892       .  S
O7           C12   1.263       .  A
O8           V10   1.894   1_554  S
O8           C11   1.263       .  A
V9           V10   2.086       .  T
C11        C1013   1.474       .  S
C12        C1078   1.480       .  S
C13        C1041   1.471       .  S
C14        C1106   1.478       .  S
O15          V23   1.887       .  S
O15          C25   1.261       .  A
O16          V23   1.889   1_556  S
O16          C26   1.263       .  A
O17          V23   1.896   1_556  S
O17          C27   1.264       .  A
O18          V23   1.895       .  S
O18          C28   1.263       .  A
O19          V24   1.894       .  S
O19          C28   1.264       .  A
O20          V24   1.893       .  S
O20          C27   1.264   1_554  A
O21          V24   1.908       .  S
O21          C26   1.266   1_554  A
O22          V24   1.905       .  S
O22          C25   1.267       .  A
V23          V24   2.083       .  T
C25         C910   1.485       .  S
C26         C966   1.486       .  S
C27         C994   1.483       .  S
C28         C929   1.481       .  S
O29          V37   1.891       .  S
O29          C39   1.262       .  A
O30          V37   1.890   1_556  S
O30          C40   1.263       .  A
O31          V37   1.893       .  S
O31          C41   1.263       .  A
O32          V37   1.892   1_556  S
O32          C42   1.263       .  A
O33          V38   1.900   1_556  S
O33          C42   1.265       .  A
O34          V38   1.899       .  S
O34          C41   1.265       .  A
O35          V38   1.905   1_556  S
O35          C40   1.266       .  A
O36          V38   1.905       .  S
O36          C39   1.266       .  A
V37          V38   2.085       .  T
C39         C817   1.477       .  S
C40         C882   1.486       .  S
C41         C798   1.482       .  S
C42         C854   1.483       .  S
O43          V51   1.880   1_554  S
O43          C53   1.260       .  A
O44          V51   1.879       .  S
O44          C54   1.261       .  A
O45          V51   1.888       .  S
O45          C55   1.263       .  A
O46          V51   1.889   1_554  S
O46          C56   1.263       .  A
O47          V52   1.901   1_554  S
O47          C56   1.265       .  A
O48          V52   1.900       .  S
O48          C55   1.264       .  A
O49          V52   1.901       .  S
O49          C54   1.265       .  A
O50          V52   1.901       .  S
O50          C53   1.266   1_556  A
V51          V52   2.085       .  T
C53         C677   1.480       .  S
C54         C742   1.474       .  S
C55         C761   1.477       .  S
C56         C714   1.474       .  S
O57          V65   1.899       .  S
O57          C67   1.265       .  A
O58          V65   1.901       .  S
O58          C68   1.264       .  A
O59          V65   1.904       .  S
O59          C69   1.265       .  A
O60          V65   1.905       .  S
O60          C70   1.266       .  A
O61          V66   1.883       .  S
O61          C70   1.261       .  A
O62          V66   1.884       .  S
O62          C69   1.263       .  A
O63          V66   1.889       .  S
O63          C68   1.262       .  A
O64          V66   1.893       .  S
O64          C67   1.263       .  A
V65          V66   2.085       .  T
C67         C593   1.480       .  S
C68         C658   1.468   1_545  S
C69         C565   1.484       .  S
C70         C621   1.474       .  S
O71          V79   1.904   1_655  S
O71          C81   1.266       .  A
O72          V79   1.906       .  S
O72          C82   1.265       .  A
O73          V79   1.903       .  S
O73          C83   1.264       .  A
O74          V79   1.898   1_655  S
O74          C84   1.263       .  A
O75          V80   1.895   1_655  S
O75          C84   1.264       .  A
O76          V80   1.891       .  S
O76          C83   1.264       .  A
O77          V80   1.889       .  S
O77          C82   1.263       .  A
O78          V80   1.889   1_655  S
O78          C81   1.263       .  A
V79          V80   2.085       .  T
C81         C518   1.485       .  S
C82         C453   1.478       .  S
C83         C490   1.476       .  S
C84         C537   1.479       .  S
O85          V93   1.893       .  S
O85          C95   1.263       .  A
O86          V93   1.895       .  S
O86          C96   1.264       .  A
O87          V93   1.907       .  S
O87          C97   1.267       .  A
O88          V93   1.906       .  S
O88          C98   1.265       .  A
O89          V94   1.883       .  S
O89          C98   1.262       .  A
O90          V94   1.883       .  S
O90          C97   1.260       .  A
O91          V94   1.890       .  S
O91          C96   1.262       .  A
O92          V94   1.894       .  S
O92          C95   1.264       .  A
V93          V94   2.085       .  T
C95         C434   1.475       .  S
C96         C369   1.477       .  S
C97         C397   1.485       .  S
C98         C341   1.479       .  S
O99         V107   1.882       .  S
O99         C109   1.262       .  A
O100        V107   1.891   1_455  S
O100        C110   1.263       .  A
O101        V107   1.896   1_455  S
O101        C111   1.264       .  A
O102        V107   1.896       .  S
O102        C112   1.264       .  A
O103        V108   1.894       .  S
O103        C112   1.261       .  A
O104        V108   1.888   1_455  S
O104        C111   1.263       .  A
O105        V108   1.901   1_455  S
O105        C110   1.265       .  A
O106        V108   1.904       .  S
O106        C109   1.265       .  A
V107        V108   2.087       .  T
C109        C322   1.476       .  S
C110        C266   1.480       .  S
C111        C229   1.476       .  S
C112        C285   1.464       .  S
O113        V121   1.894       .  S
O113        C123   1.264       .  A
O114        V121   1.893       .  S
O114        C124   1.262       .  A
O115        V121   1.899       .  S
O115        C125   1.265       .  A
O116        V121   1.902       .  S
O116        C126   1.265       .  A
O117        V122   1.889       .  S
O117        C126   1.263       .  A
O118        V122   1.890       .  S
O118        C125   1.263       .  A
O119        V122   1.896       .  S
O119        C124   1.264       .  A
O120        V122   1.899       .  S
O120        C123   1.264       .  A
V121        V122   2.086       .  T
C123        C257   1.485       .  S
C124       C1022   1.473       .  S
C125        C574   1.479       .  S
C126        C938   1.476       .  S
O127        V135   1.894       .  S
O127        C137   1.264       .  A
O128        V135   1.894       .  S
O128        C138   1.262       .  A
O129        V135   1.894       .  S
O129        C139   1.264       .  A
O130        V135   1.895       .  S
O130        C140   1.262       .  A
O131        V136   1.894       .  S
O131        C140   1.264       .  A
O132        V136   1.894       .  S
O132        C139   1.263       .  A
O133        V136   1.888       .  S
O133        C138   1.263       .  A
O134        V136   1.892       .  S
O134        C137   1.263       .  A
V135        V136   2.085       .  T
C137        C378   1.480       .  S
C138        C686   1.472       .  S
C139        C294   1.480       .  S
C140       C1050   1.480       .  S
O141        V149   1.894       .  S
O141        C151   1.264       .  A
O142        V149   1.895       .  S
O142        C152   1.264       .  A
O143        V149   1.894       .  S
O143        C153   1.263       .  A
O144        V149   1.896       .  S
O144        C154   1.265       .  A
O145        V150   1.891       .  S
O145        C154   1.262       .  A
O146        V150   1.893       .  S
O146        C153   1.263       .  A
O147        V150   1.892       .  S
O147        C152   1.263       .  A
O148        V150   1.893       .  S
O148        C151   1.263       .  A
V149        V150   2.086       .  T
C151        C350   1.480       .  S
C152        C770   1.472       .  S
C153        C313   1.474       .  S
C154       C1069   1.479       .  S
O155        V163   1.902       .  S
O155        C165   1.265       .  A
O156        V163   1.902       .  S
O156        C166   1.265       .  A
O157        V163   1.891       .  S
O157        C167   1.262       .  A
O158        V163   1.893       .  S
O158        C168   1.264       .  A
O159        V164   1.899       .  S
O159        C168   1.264       .  A
O160        V164   1.900       .  S
O160        C167   1.265       .  A
O161        V164   1.892       .  S
O161        C166   1.263       .  A
O162        V164   1.891       .  S
O162        C165   1.264       .  A
V163        V164   2.084       .  T
C165        C789   1.486       .  S
C166        C546   1.475       .  S
C167        C705   1.482       .  S
C168        C406   1.485       .  S
O169        V177   1.889       .  S
O169        C179   1.262       .  A
O170        V177   1.886       .  S
O170        C180   1.263       .  A
O171        V177   1.898       .  S
O171        C181   1.264       .  A
O172        V177   1.897       .  S
O172        C182   1.264       .  A
O173        V178   1.896       .  S
O173        C182   1.264       .  A
O174        V178   1.899       .  S
O174        C181   1.265       .  A
O175        V178   1.897       .  S
O175        C180   1.264       .  A
O176        V178   1.893       .  S
O176        C179   1.264       .  A
V177        V178   2.086       .  T
C179        C733   1.468       .  S
C180        C425   1.478       .  S
C181        C873   1.487       .  S
C182        C509   1.479       .  S
O183        V191   1.907       .  S
O183        C193   1.267       .  A
O184        V191   1.905       .  S
O184        C194   1.265       .  A
O185        V191   1.893       .  S
O185        C195   1.264       .  A
O186        V191   1.889       .  S
O186        C196   1.263       .  A
O187        V192   1.902       .  S
O187        C196   1.265       .  A
O188        V192   1.899       .  S
O188        C195   1.265       .  A
O189        V192   1.892       .  S
O189        C194   1.262       .  A
O190        V192   1.888       .  S
O190        C193   1.262       .  A
V191        V192   2.085       .  T
C193        C462   1.485       .  S
C194        C826   1.470       .  S
C195        C649   1.483       .  S
C196        C901   1.486       .  S
O197        V205   1.890       .  S
O197        C207   1.263       .  A
O198        V205   1.885       .  S
O198        C208   1.262       .  A
O199        V205   1.892       .  S
O199        C209   1.263       .  A
O200        V205   1.887       .  S
O200        C210   1.263       .  A
O201        V206   1.901       .  S
O201        C210   1.264       .  A
O202        V206   1.900       .  S
O202        C209   1.265       .  A
O203        V206   1.903       .  S
O203        C208   1.265       .  A
O204        V206   1.900       .  S
O204        C207   1.264       .  A
V205        V206   2.085       .  T
C207        C630   1.484       .  S
C208        C985   1.473       .  S
C209        C481   1.478       .  S
C210        C845   1.482       .  S
O211        V219   1.902       .  S
O211        C221   1.266       .  A
O212        V219   1.907       .  S
O212        C222   1.267       .  A
O213        V219   1.894       .  S
O213        C223   1.264       .  A
O214        V219   1.892       .  S
O214        C224   1.262       .  A
O215        V220   1.892       .  S
O215        C224   1.263       .  A
O216        V220   1.890       .  S
O216        C223   1.263       .  A
O217        V220   1.889       .  S
O217        C222   1.262       .  A
O218        V220   1.890       .  S
O218        C221   1.262       .  A
V219        V220   2.084       .  T
C221        C602   1.475       .  S
C222        C957   1.488       .  S
C223        C238   1.481       .  S
C224       C1097   1.468       .  S
C225        C226   1.402       .  A
C225        C230   1.401       .  A
C225        H235   1.087       .  S
C226        C231   1.474       .  S
C226        C227   1.410       .  A
C227        C228   1.398       .  A
C227        N232   1.439       .  S
C228        C229   1.405       .  A
C228        H233   1.086       .  S
C229        C230   1.415       .  A
C230        N234   1.436       .  S
C231        C236   1.411       .  A
C231        C240   1.399       .  A
N232        O247   1.263       .  A
N232        O248   1.263       .  A
N234        O245   1.263       .  A
N234        O246   1.263       .  A
C236        C237   1.403       .  A
C236        N241   1.440       .  S
C237        C238   1.408       .  A
C237        H242   1.086       .  S
C238        C239   1.416       .  A
C239        C240   1.394       .  A
C239        N243   1.432       .  S
C240        H244   1.087       .  S
N241        O251   1.263       .  A
N241        O252   1.263       .  A
N243        O249   1.263       .  A
N243        O250   1.262       .  A
C253        C254   1.402       .  A
C253        C258   1.398       .  A
C253        H263   1.085       .  S
C254        C259   1.482       .  S
C254        C255   1.415       .  A
C255        C256   1.402       .  A
C255        N260   1.439       .  S
C256        C257   1.407       .  A
C256        H261   1.084       .  S
C257        C258   1.414       .  A
C258        N262   1.430       .  S
C259        C264   1.414       .  A
C259        C268   1.404       .  A
N260        O275   1.262       .  A
N260        O276   1.263       .  A
N262        O273   1.262       .  A
N262        O274   1.262       .  A
C264        C265   1.403       .  A
C264        N269   1.440       .  S
C265        C266   1.406       .  A
C265        H270   1.083       .  S
C266        C267   1.412       .  A
C267        C268   1.400       .  A
C267        N271   1.434       .  S
C268        H272   1.084       .  S
N269        O279   1.263       .  A
N269        O280   1.263       .  A
N271        O277   1.262       .  A
N271        O278   1.263       .  A
C281        C282   1.399       .  A
C281        C286   1.397       .  A
C281        H291   1.086       .  S
C282        C287   1.472       .  S
C282        C283   1.414       .  A
C283        C284   1.403       .  A
C283        N288   1.439       .  S
C284        C285   1.401       .  A
C284        H289   1.085       .  S
C285        C286   1.411       .  A
C286        N290   1.437       .  S
C287        C292   1.412       .  A
C287        C296   1.400       .  A
N288        O303   1.263       .  A
N288        O304   1.263       .  A
N290        O301   1.262       .  A
N290        O302   1.262       .  A
C292        C293   1.400       .  A
C292        N297   1.440       .  S
C293        C294   1.405       .  A
C293        H298   1.083       .  S
C294        C295   1.414       .  A
C295        C296   1.399       .  A
C295        N299   1.431       .  S
C296        H300   1.084       .  S
N297        O307   1.263       .  A
N297        O308   1.262       .  A
N299        O305   1.262       .  A
N299        O306   1.262       .  A
C309        C310   1.401       .  A
C309        C314   1.397       .  A
C309        H319   1.086       .  S
C310        C315   1.474       .  S
C310        C311   1.413       .  A
C311        C312   1.401       .  A
C311        N316   1.437       .  S
C312        C313   1.404       .  A
C312        H317   1.086       .  S
C313        C314   1.413       .  A
C314        N318   1.433       .  S
C315        C320   1.412       .  A
C315        C324   1.402       .  A
N316        O331   1.262       .  A
N316        O332   1.262       .  A
N318        O329   1.263       .  A
N318        O330   1.262       .  A
C320        C321   1.396       .  A
C320        N325   1.439       .  S
C321        C322   1.404       .  A
C321        H326   1.085       .  S
C322        C323   1.413       .  A
C323        C324   1.402       .  A
C323        N327   1.432       .  S
C324        H328   1.085       .  S
N325        O335   1.263       .  A
N325        O336   1.263       .  A
N327        O333   1.262       .  A
N327        O334   1.262       .  A
C337        C338   1.402       .  A
C337        C342   1.402       .  A
C337        H347   1.086       .  S
C338        C343   1.476       .  S
C338        C339   1.413       .  A
C339        C340   1.396       .  A
C339        N344   1.440       .  S
C340        C341   1.404       .  A
C340        H345   1.086       .  S
C341        C342   1.413       .  A
C342        N346   1.430       .  S
C343        C348   1.412       .  A
C343        C352   1.401       .  A
N344        O359   1.263       .  A
N344        O360   1.263       .  A
N346        O357   1.262       .  A
N346        O358   1.262       .  A
C348        C349   1.403       .  A
C348        N353   1.437       .  S
C349        C350   1.407       .  A
C349        H354   1.086       .  S
C350        C351   1.414       .  A
C351        C352   1.394       .  A
C351        N355   1.431       .  S
C352        H356   1.087       .  S
N353        O363   1.263       .  A
N353        O364   1.262       .  A
N355        O361   1.262       .  A
N355        O362   1.262       .  A
C365        C366   1.398       .  A
C365        C370   1.396       .  A
C365        H375   1.086       .  S
C366        C371   1.467       .  S
C366        C367   1.405       .  A
C367        C368   1.399       .  A
C367        N372   1.431       .  S
C368        C369   1.407       .  A
C368        H373   1.085       .  S
C369        C370   1.416       .  A
C370        N374   1.433       .  S
C371        C376   1.403       .  A
C371        C380   1.398       .  A
N372        O387   1.262       .  A
N372        O388   1.262       .  A
N374        O385   1.262       .  A
N374        O386   1.262       .  A
C376        C377   1.396       .  A
C376        N381   1.430       .  S
C377        C378   1.408       .  A
C377        H382   1.085       .  S
C378        C379   1.417       .  A
C379        C380   1.399       .  A
C379        N383   1.433       .  S
C380        H384   1.086       .  S
N381        O391   1.262       .  A
N381        O392   1.261       .  A
N383        O389   1.262       .  A
N383        O390   1.262       .  A
C393        C394   1.400       .  A
C393        C398   1.395       .  A
C393        H403   1.087       .  S
C394        C399   1.482   1_545  S
C394        C395   1.414       .  A
C395        C396   1.405       .  A
C395        N400   1.438       .  S
C396        C397   1.406       .  A
C396        H401   1.086       .  S
C397        C398   1.418       .  A
C398        N402   1.433       .  S
C399        C404   1.414   1_565  A
C399        C408   1.402       .  A
N400        O415   1.263       .  A
N400        O416   1.263       .  A
N402        O413   1.262       .  A
N402        O414   1.262       .  A
C404        C405   1.401   1_545  A
C404        N409   1.440       .  S
C405        C406   1.406       .  A
C405        H410   1.086       .  S
C406        C407   1.415       .  A
C407        C408   1.399       .  A
C407        N411   1.430       .  S
C408        H412   1.087       .  S
N409        O419   1.263       .  A
N409        O420   1.263       .  A
N411        O417   1.262       .  A
N411        O418   1.262       .  A
C421        C422   1.399   1_565  A
C421        C426   1.399       .  A
C421        H431   1.085       .  S
C422        C427   1.468       .  S
C422        C423   1.408       .  A
C423        C424   1.396   1_545  A
C423        N428   1.436       .  S
C424        C425   1.405       .  A
C424        H429   1.084       .  S
C425        C426   1.414       .  A
C426        N430   1.429       .  S
C427        C432   1.408       .  A
C427        C436   1.398       .  A
N428        O443   1.262       .  A
N428        O444   1.262       .  A
N430        O441   1.262       .  A
N430        O442   1.262       .  A
C432        C433   1.397       .  A
C432        N437   1.434       .  S
C433        C434   1.404       .  A
C433        H438   1.085       .  S
C434        C435   1.414       .  A
C435        C436   1.398       .  A
C435        N439   1.428       .  S
C436        H440   1.085       .  S
N437        O447   1.262   1_545  A
N437        O448   1.262       .  A
N439        O445   1.262       .  A
N439        O446   1.262       .  A
C449        C450   1.402       .  A
C449        C454   1.406       .  A
C449        H459   1.086       .  S
C450        C455   1.473       .  S
C450        C451   1.406       .  A
C451        C452   1.395       .  A
C451        N456   1.433       .  S
C452        C453   1.404       .  A
C452        H457   1.085       .  S
C453        C454   1.416       .  A
C454        N458   1.433       .  S
C455        C460   1.406       .  A
C455        C464   1.397       .  A
N456        O471   1.262       .  A
N456        O472   1.262       .  A
N458        O469   1.262       .  A
N458        O470   1.262       .  A
C460        C461   1.403       .  A
C460        N465   1.430       .  S
C461        C462   1.408       .  A
C461        H466   1.084       .  S
C462        C463   1.417       .  A
C463        C464   1.395       .  A
C463        N467   1.430       .  S
C464        H468   1.085       .  S
N465        O475   1.262       .  A
N465        O476   1.262       .  A
N467        O473   1.262       .  A
N467        O474   1.262       .  A
C477        C478   1.400       .  A
C477        C482   1.398       .  A
C477        H487   1.085       .  S
C478        C483   1.472       .  S
C478        C479   1.405       .  A
C479        C480   1.399       .  A
C479        N484   1.429       .  S
C480        C481   1.407       .  A
C480        H485   1.085       .  S
C481        C482   1.413       .  A
C482        N486   1.430       .  S
C483        C488   1.411       .  A
C483        C492   1.399       .  A
N484        O499   1.262       .  A
N484        O500   1.262       .  A
N486        O497   1.262       .  A
N486        O498   1.262       .  A
C488        C489   1.406       .  A
C488        N493   1.437       .  S
C489        C490   1.406       .  A
C489        H494   1.085       .  S
C490        C491   1.413       .  A
C491        C492   1.397       .  A
C491        N495   1.437       .  S
C492        H496   1.085       .  S
N493        O503   1.262       .  A
N493        O504   1.262       .  A
N495        O501   1.263       .  A
N495        O502   1.262       .  A
C505        C506   1.403       .  A
C505        C510   1.400       .  A
C505        H515   1.088       .  S
C506        C511   1.485       .  S
C506        C507   1.415       .  A
C507        C508   1.402       .  A
C507        N512   1.439       .  S
C508        C509   1.404       .  A
C508        H513   1.087       .  S
C509        C510   1.415       .  A
C510        N514   1.435       .  S
C511        C516   1.414       .  A
C511        C520   1.404       .  A
N512        O527   1.263       .  A
N512        O528   1.263       .  A
N514        O525   1.263       .  A
N514        O526   1.263       .  A
C516        C517   1.401       .  A
C516        N521   1.439       .  S
C517        C518   1.407       .  A
C517        H522   1.086       .  S
C518        C519   1.413       .  A
C519        C520   1.399       .  A
C519        N523   1.429       .  S
C520        H524   1.087       .  S
N521        O531   1.263       .  A
N521        O532   1.263       .  A
N523        O529   1.262       .  A
N523        O530   1.262       .  A
C533        C534   1.400       .  A
C533        C538   1.400       .  A
C533        H543   1.086       .  S
C534        C539   1.474       .  S
C534        C535   1.410       .  A
C535        C536   1.401       .  A
C535        N540   1.437       .  S
C536        C537   1.406       .  A
C536        H541   1.085       .  S
C537        C538   1.416       .  A
C538        N542   1.433       .  S
C539        C544   1.411       .  A
C539        C548   1.399       .  A
N540        O555   1.263       .  A
N540        O556   1.262       .  A
N542        O553   1.262       .  A
N542        O554   1.262       .  A
C544        C545   1.403       .  A
C544        N549   1.435       .  S
C545        C546   1.404       .  A
C545        H550   1.085       .  S
C546        C547   1.413       .  A
C547        C548   1.397       .  A
C547        N551   1.431       .  S
C548        H552   1.086       .  S
N549        O559   1.262       .  A
N549        O560   1.262       .  A
N551        O557   1.262       .  A
N551        O558   1.262       .  A
C561        C562   1.402       .  A
C561        C566   1.404       .  A
C561        H571   1.087       .  S
C562        C567   1.477       .  S
C562        C563   1.410       .  A
C563        C564   1.394       .  A
C563        N568   1.438       .  S
C564        C565   1.406       .  A
C564        H569   1.086       .  S
C565        C566   1.418       .  A
C566        N570   1.435       .  S
C567        C572   1.412       .  A
C567        C576   1.402       .  A
N568        O583   1.263       .  A
N568        O584   1.263       .  A
N570        O581   1.263       .  A
N570        O582   1.262       .  A
C572        C573   1.400       .  A
C572        N577   1.438       .  S
C573        C574   1.406       .  A
C573        H578   1.086       .  S
C574        C575   1.415       .  A
C575        C576   1.401       .  A
C575        N579   1.437       .  S
C576        H580   1.087       .  S
N577        O587   1.263       .  A
N577        O588   1.262       .  A
N579        O585   1.263       .  A
N579        O586   1.263       .  A
C589        C590   1.400       .  A
C589        C594   1.397       .  A
C589        H599   1.087       .  S
C590        C595   1.477       .  S
C590        C591   1.413       .  A
C591        C592   1.402       .  A
C591        N596   1.438       .  S
C592        C593   1.405       .  A
C592        H597   1.086       .  S
C593        C594   1.414       .  A
C594        N598   1.430       .  S
C595        C600   1.413       .  A
C595        C604   1.402       .  A
N596        O611   1.263       .  A
N596        O612   1.263       .  A
N598        O609   1.262       .  A
N598        O610   1.262       .  A
C600        C601   1.401       .  A
C600        N605   1.439       .  S
C601        C602   1.404       .  A
C601        H606   1.086       .  S
C602        C603   1.411       .  A
C603        C604   1.399       .  A
C603        N607   1.432       .  S
C604        H608   1.087       .  S
N605        O615   1.263       .  A
N605        O616   1.263       .  A
N607        O613   1.262       .  A
N607        O614   1.262       .  A
C617        C618   1.401       .  A
C617        C622   1.405   1_565  A
C617        H627   1.085       .  S
C618        C623   1.470       .  S
C618        C619   1.403       .  A
C619        C620   1.392       .  A
C619        N624   1.430       .  S
C620        C621   1.405   1_565  A
C620        H625   1.085       .  S
C621        C622   1.417       .  A
C622        N626   1.437       .  S
C623        C628   1.407       .  A
C623        C632   1.399       .  A
N624        O639   1.262       .  A
N624        O640   1.262       .  A
N626        O637   1.263       .  A
N626        O638   1.263       .  A
C628        C629   1.399       .  A
C628        N633   1.437       .  S
C629        C630   1.408       .  A
C629        H634   1.085       .  S
C630        C631   1.417       .  A
C631        C632   1.400       .  A
C631        N635   1.433       .  S
C632        H636   1.085       .  S
N633        O643   1.262       .  A
N633        O644   1.262       .  A
N635        O641   1.262       .  A
N635        O642   1.262       .  A
C645        C646   1.401       .  A
C645        C650   1.401       .  A
C645        H655   1.087       .  S
C646        C651   1.476       .  S
C646        C647   1.408       .  A
C647        C648   1.400       .  A
C647        N652   1.436       .  S
C648        C649   1.407       .  A
C648        H653   1.086       .  S
C649        C650   1.417       .  A
C650        N654   1.434       .  S
C651        C656   1.408       .  A
C651        C660   1.401       .  A
N652        O667   1.262       .  A
N652        O668   1.263       .  A
N654        O665   1.262       .  A
N654        O666   1.263       .  A
C656        C657   1.400       .  A
C656        N661   1.431       .  S
C657        C658   1.403       .  A
C657        H662   1.087   1_565  S
C658        C659   1.414       .  A
C659        C660   1.400       .  A
C659        N663   1.439       .  S
C660        H664   1.087       .  S
N661        O671   1.262   1_565  A
N661        O672   1.262       .  A
N663        O669   1.262       .  A
N663        O670   1.263       .  A
C673        C674   1.397       .  A
C673        C678   1.391       .  A
C673        H683   1.086       .  S
C674        C679   1.469       .  S
C674        C675   1.409       .  A
C675        C676   1.404       .  A
C675        N680   1.437       .  S
C676        C677   1.408       .  A
C676        H681   1.085       .  S
C677        C678   1.417       .  A
C678        N682   1.433       .  S
C679        C684   1.409       .  A
C679        C688   1.400       .  A
N680        O695   1.262       .  A
N680        O696   1.263       .  A
N682        O693   1.262       .  A
N682        O694   1.262       .  A
C684        C685   1.396       .  A
C684        N689   1.437       .  S
C685        C686   1.403       .  A
C685        H690   1.085       .  S
C686        C687   1.412       .  A
C687        C688   1.398       .  A
C687        N691   1.430       .  S
C688        H692   1.085       .  S
N689        O699   1.263       .  A
N689        O700   1.263       .  A
N691        O697   1.262       .  A
N691        O698   1.262       .  A
C701        C702   1.398       .  A
C701        C706   1.396       .  A
C701        H711   1.085       .  S
C702        C707   1.472       .  S
C702        C703   1.411       .  A
C703        C704   1.404       .  A
C703        N708   1.438       .  S
C704        C705   1.407       .  A
C704        H709   1.084       .  S
C705        C706   1.416       .  A
C706        N710   1.431       .  S
C707        C712   1.407       .  A
C707        C716   1.401       .  A
N708        O723   1.262       .  A
N708        O724   1.263       .  A
N710        O721   1.262       .  A
N710        O722   1.262       .  A
C712        C713   1.396       .  A
C712        N717   1.432       .  S
C713        C714   1.403       .  A
C713        H718   1.085       .  S
C714        C715   1.412       .  A
C715        C716   1.401       .  A
C715        N719   1.430       .  S
C716        H720   1.085       .  S
N717        O727   1.262       .  A
N717        O728   1.262       .  A
N719        O725   1.262       .  A
N719        O726   1.262       .  A
C729        C730   1.399       .  A
C729        C734   1.398       .  A
C729        H739   1.086       .  S
C730        C735   1.466       .  S
C730        C731   1.411       .  A
C731        C732   1.399       .  A
C731        N736   1.440       .  S
C732        C733   1.404       .  A
C732        H737   1.086       .  S
C733        C734   1.413       .  A
C734        N738   1.438       .  S
C735        C740   1.409       .  A
C735        C744   1.400       .  A
N736        O751   1.263       .  A
N736        O752   1.263       .  A
N738        O749   1.263       .  A
N738        O750   1.263       .  A
C740        C741   1.395       .  A
C740        N745   1.439       .  S
C741        C742   1.405       .  A
C741        H746   1.085       .  S
C742        C743   1.412       .  A
C743        C744   1.399       .  A
C743        N747   1.430       .  S
C744        H748   1.086       .  S
N745        O755   1.263       .  A
N745        O756   1.263       .  A
N747        O753   1.262       .  A
N747        O754   1.262       .  A
C757        C758   1.401       .  A
C757        C762   1.401       .  A
C757        H767   1.085       .  S
C758        C763   1.474       .  S
C758        C759   1.412       .  A
C759        C760   1.398       .  A
C759        N764   1.439       .  S
C760        C761   1.405       .  A
C760        H765   1.085       .  S
C761        C762   1.415       .  A
C762        N766   1.433       .  S
C763        C768   1.412       .  A
C763        C772   1.401       .  A
N764        O779   1.262       .  A
N764        O780   1.263       .  A
N766        O777   1.262       .  A
N766        O778   1.262       .  A
C768        C769   1.403       .  A
C768        N773   1.441       .  S
C769        C770   1.404       .  A
C769        H774   1.084       .  S
C770        C771   1.412       .  A
C771        C772   1.398       .  A
C771        N775   1.436       .  S
C772        H776   1.085       .  S
N773        O783   1.263       .  A
N773        O784   1.263       .  A
N775        O781   1.262       .  A
N775        O782   1.262       .  A
C785        C786   1.401       .  A
C785        C790   1.402       .  A
C785        H795   1.086       .  S
C786        C791   1.476       .  S
C786        C787   1.410       .  A
C787        C788   1.399       .  A
C787        N792   1.439       .  S
C788        C789   1.407       .  A
C788        H793   1.085       .  S
C789        C790   1.416       .  A
C790        N794   1.430       .  S
C791        C796   1.411       .  A
C791        C800   1.400       .  A
N792        O807   1.263       .  A
N792        O808   1.263       .  A
N794        O805   1.262       .  A
N794        O806   1.262       .  A
C796        C797   1.403       .  A
C796        N801   1.438       .  S
C797        C798   1.407       .  A
C797        H802   1.085       .  S
C798        C799   1.416       .  A
C799        C800   1.399       .  A
C799        N803   1.437       .  S
C800        H804   1.086       .  S
N801        O811   1.263       .  A
N801        O812   1.262       .  A
N803        O809   1.263       .  A
N803        O810   1.263       .  A
C813        C814   1.406       .  A
C813        C818   1.400       .  A
C813        H823   1.090       .  S
C814        C819   1.491       .  S
C814        C815   1.417       .  A
C815        C816   1.403       .  A
C815        N820   1.439       .  S
C816        C817   1.404       .  A
C816        H821   1.090       .  S
C817        C818   1.413       .  A
C818        N822   1.436       .  S
C819        C824   1.418       .  A
C819        C828   1.406       .  A
N820        O835   1.263       .  A
N820        O836   1.263       .  A
N822        O833   1.263       .  A
N822        O834   1.262       .  A
C824        C825   1.403       .  A
C824        N829   1.440       .  S
C825        C826   1.401       .  A
C825        H830   1.091       .  S
C826        C827   1.411       .  A
C827        C828   1.401       .  A
C827        N831   1.437       .  S
C828        H832   1.091       .  S
N829        O839   1.263       .  A
N829        O840   1.263       .  A
N831        O837   1.263       .  A
N831        O838   1.262       .  A
C841        C842   1.401       .  A
C841        C846   1.404       .  A
C841        H851   1.085       .  S
C842        C847   1.475       .  S
C842        C843   1.408       .  A
C843        C844   1.396       .  A
C843        N848   1.438       .  S
C844        C845   1.406       .  A
C844        H849   1.085       .  S
C845        C846   1.418       .  A
C846        N850   1.435       .  S
C847        C852   1.410       .  A
C847        C856   1.399       .  A
N848        O863   1.262       .  A
N848        O864   1.263       .  A
N850        O861   1.262       .  A
N850        O862   1.263       .  A
C852        C853   1.404       .  A
C852        N857   1.437       .  S
C853        C854   1.408       .  A
C853        H858   1.086       .  S
C854        C855   1.416       .  A
C855        C856   1.396       .  A
C855        N859   1.434       .  S
C856        H860   1.087       .  S
N857        O867   1.262       .  A
N857        O868   1.263       .  A
N859        O865   1.263       .  A
N859        O866   1.263       .  A
C869        C870   1.399       .  A
C869        C874   1.401       .  A
C869        H879   1.085       .  S
C870        C875   1.479       .  S
C870        C871   1.411       .  A
C871        C872   1.403       .  A
C871        N876   1.438       .  S
C872        C873   1.408       .  A
C872        H877   1.084       .  S
C873        C874   1.418       .  A
C874        N878   1.433       .  S
C875        C880   1.412       .  A
C875        C884   1.402       .  A
N876        O891   1.263       .  A
N876        O892   1.263       .  A
N878        O889   1.263       .  A
N878        O890   1.262       .  A
C880        C881   1.400       .  A
C880        N885   1.440       .  S
C881        C882   1.407       .  A
C881        H886   1.084       .  S
C882        C883   1.416       .  A
C883        C884   1.405       .  A
C883        N887   1.434       .  S
C884        H888   1.084       .  S
N885        O895   1.263       .  A
N885        O896   1.263       .  A
N887        O893   1.262       .  A
N887        O894   1.263       .  A
C897        C898   1.401       .  A
C897        C902   1.401       .  A
C897        H907   1.086       .  S
C898        C903   1.478       .  S
C898        C899   1.411       .  A
C899        C900   1.400       .  A
C899        N904   1.440       .  S
C900        C901   1.408       .  A
C900        H905   1.085       .  S
C901        C902   1.416       .  A
C902        N906   1.432       .  S
C903        C908   1.412       .  A
C903        C912   1.399       .  A
N904        O919   1.263       .  A
N904        O920   1.263       .  A
N906        O917   1.262       .  A
N906        O918   1.262       .  A
C908        C909   1.405       .  A
C908        N913   1.439       .  S
C909        C910   1.407       .  A
C909        H914   1.085       .  S
C910        C911   1.419       .  A
C911        C912   1.396       .  A
C911        N915   1.434       .  S
C912        H916   1.087       .  S
N913        O923   1.263       .  A
N913        O924   1.263       .  A
N915        O921   1.263       .  A
N915        O922   1.262       .  A
C925        C926   1.399       .  A
C925        C930   1.396       .  A
C925        H935   1.086       .  S
C926        C931   1.471       .  S
C926        C927   1.410       .  A
C927        C928   1.402       .  A
C927        N932   1.438       .  S
C928        C929   1.407       .  A
C928        H933   1.085       .  S
C929        C930   1.414       .  A
C930        N934   1.429       .  S
C931        C936   1.406       .  A
C931        C940   1.398       .  A
N932        O947   1.263       .  A
N932        O948   1.263       .  A
N934        O945   1.262       .  A
N934        O946   1.262       .  A
C936        C937   1.398       .  A
C936        N941   1.429       .  S
C937        C938   1.404       .  A
C937        H942   1.087       .  S
C938        C939   1.415       .  A
C939        C940   1.399       .  A
C939        N943   1.434       .  S
C940        H944   1.088       .  S
N941        O951   1.262       .  A
N941        O952   1.262       .  A
N943        O949   1.263       .  A
N943        O950   1.262       .  A
C953        C954   1.400       .  A
C953        C958   1.395       .  A
C953        H963   1.087       .  S
C954        C959   1.484       .  S
C954        C955   1.414       .  A
C955        C956   1.407       .  A
C955        N960   1.437       .  S
C956        C957   1.408       .  A
C956        H961   1.086       .  S
C957        C958   1.416       .  A
C958        N962   1.431       .  S
C959        C964   1.414       .  A
C959        C968   1.403       .  A
N960        O975   1.262       .  A
N960        O976   1.262       .  A
N962        O973   1.262       .  A
N962        O974   1.262       .  A
C964        C965   1.399       .  A
C964        N969   1.440       .  S
C965        C966   1.406       .  A
C965        H970   1.085       .  S
C966        C967   1.414       .  A
C967        C968   1.404       .  A
C967        N971   1.430       .  S
C968        H972   1.086       .  S
N969        O979   1.263       .  A
N969        O980   1.263       .  A
N971        O977   1.262       .  A
N971        O978   1.262       .  A
C981        C982   1.399       .  A
C981        C986   1.398       .  A
C981        H991   1.085       .  S
C982        C987   1.473       .  S
C982        C983   1.413       .  A
C983        C984   1.404       .  A
C983        N988   1.439       .  S
C984        C985   1.404       .  A
C984        H989   1.084       .  S
C985        C986   1.414       .  A
C986        N990   1.439       .  S
C987        C992   1.410       .  A
C987        C996   1.400       .  A
N988       O1003   1.263       .  A
N988       O1004   1.263       .  A
N990       O1001   1.263       .  A
N990       O1002   1.263       .  A
C992        C993   1.402       .  A
C992        N997   1.438       .  S
C993        C994   1.408       .  A
C993        H998   1.084       .  S
C994        C995   1.415       .  A
C995        C996   1.397       .  A
C995        N999   1.430       .  S
C996       H1000   1.085       .  S
N997       O1007   1.262       .  A
N997       O1008   1.263       .  A
N999       O1005   1.262       .  A
N999       O1006   1.262       .  A
C1009      C1010   1.402       .  A
C1009      C1014   1.395       .  A
C1009      H1019   1.087       .  S
C1010      C1015   1.477       .  S
C1010      C1011   1.412       .  A
C1011      C1012   1.401       .  A
C1011      N1016   1.437       .  S
C1012      C1013   1.405       .  A
C1012      H1017   1.087       .  S
C1013      C1014   1.410       .  A
C1014      N1018   1.430       .  S
C1015      C1020   1.413       .  A
C1015      C1024   1.400       .  A
N1016      O1031   1.263       .  A
N1016      O1032   1.262       .  A
N1018      O1029   1.262       .  A
N1018      O1030   1.262       .  A
C1020      C1021   1.401       .  A
C1020      N1025   1.440       .  S
C1021      C1022   1.403       .  A
C1021      H1026   1.087       .  S
C1022      C1023   1.415       .  A
C1023      C1024   1.398       .  A
C1023      N1027   1.435       .  S
C1024      H1028   1.087       .  S
N1025      O1035   1.263       .  A
N1025      O1036   1.263       .  A
N1027      O1033   1.262       .  A
N1027      O1034   1.262       .  A
C1037      C1038   1.400       .  A
C1037      C1042   1.400       .  A
C1037      H1047   1.085       .  S
C1038      C1043   1.470       .  S
C1038      C1039   1.407       .  A
C1039      C1040   1.398       .  A
C1039      N1044   1.433       .  S
C1040      C1041   1.404       .  A
C1040      H1045   1.085       .  S
C1041      C1042   1.413       .  A
C1042      N1046   1.433       .  S
C1043      C1048   1.406       .  A
C1043      C1052   1.399       .  A
N1044      O1059   1.262       .  A
N1044      O1060   1.262       .  A
N1046      O1057   1.263       .  A
N1046      O1058   1.262       .  A
C1048      C1049   1.397       .  A
C1048      N1053   1.433       .  S
C1049      C1050   1.406       .  A
C1049      H1054   1.085       .  S
C1050      C1051   1.417       .  A
C1051      C1052   1.401       .  A
C1051      N1055   1.432       .  S
C1052      H1056   1.085       .  S
N1053      O1063   1.262       .  A
N1053      O1064   1.262       .  A
N1055      O1061   1.262       .  A
N1055      O1062   1.262       .  A
C1065      C1066   1.401       .  A
C1065      C1070   1.394       .  A
C1065      H1075   1.087       .  S
C1066      C1071   1.478       .  S
C1066      C1067   1.414       .  A
C1067      C1068   1.402       .  A
C1067      N1072   1.440       .  S
C1068      C1069   1.406       .  A
C1068      H1073   1.086       .  S
C1069      C1070   1.413       .  A
C1070      N1074   1.430       .  S
C1071      C1076   1.413       .  A
C1071      C1080   1.401       .  A
N1072      O1087   1.263       .  A
N1072      O1088   1.263       .  A
N1074      O1085   1.262       .  A
N1074      O1086   1.262       .  A
C1076      C1077   1.400       .  A
C1076      N1081   1.440       .  S
C1077      C1078   1.406       .  A
C1077      H1082   1.085       .  S
C1078      C1079   1.416       .  A
C1079      C1080   1.397       .  A
C1079      N1083   1.434       .  S
C1080      H1084   1.086       .  S
N1081      O1091   1.263       .  A
N1081      O1092   1.263       .  A
N1083      O1089   1.262       .  A
N1083      O1090   1.263       .  A
C1093      C1094   1.400       .  A
C1093      C1098   1.397       .  A
C1093      H1103   1.086       .  S
C1094      C1099   1.470       .  S
C1094      C1095   1.410       .  A
C1095      C1096   1.399       .  A
C1095      N1100   1.438       .  S
C1096      C1097   1.403       .  A
C1096      H1101   1.085       .  S
C1097      C1098   1.412       .  A
C1098      N1102   1.435       .  S
C1099      C1104   1.411       .  A
C1099      C1108   1.398       .  A
N1100      O1115   1.263       .  A
N1100      O1116   1.263       .  A
N1102      O1113   1.263       .  A
N1102      O1114   1.262       .  A
C1104      C1105   1.402       .  A
C1104      N1109   1.439       .  S
C1105      C1106   1.407       .  A
C1105      H1110   1.085       .  S
C1106      C1107   1.413       .  A
C1107      C1108   1.393       .  A
C1107      N1111   1.429       .  S
C1108      H1112   1.086       .  S
N1109      O1119   1.263       .  A
N1109      O1120   1.263       .  A
N1111      O1117   1.262       .  A
N1111      O1118   1.262       .  A
