geometry optimzed in LAMMPS
_audit_creation_date              2020-12-01 
_audit_creation_method            'lammps2cif' 
_symmetry_space_group_name_H-M    'P1' 
_symmetry_Int_Tables_number       1 
_symmetry_cell_setting            triclinic 
loop_ 
_symmetry_equiv_pos_as_xyz 
  x,y,z 
_cell_length_a                    24.67128776 
_cell_length_b                    24.743695183357744 
_cell_length_c                    25.152505973083816 
_cell_angle_alpha                 91.9570607008007 
_cell_angle_beta                  91.03043392138905 
_cell_angle_gamma                 87.96586805724952 
loop_ 
_atom_site_label 
_atom_site_type_symbol 
_atom_site_fract_x 
_atom_site_fract_y 
_atom_site_fract_z 
_atom_site_charge 
Zr1        Zr  0.80465012  0.70453728  0.82796977     2.17500
O2          O  0.86667758  0.65051366  0.88301389    -0.51800
O3          O  0.77520185  0.71636583  0.92483325    -0.75000
O4          O  0.90289776  0.73239904  0.82491134    -0.81800
O5          O  0.70555646  0.58890776  0.76460332    -0.83500
O6          O  0.92356943  0.80787127  0.78150252    -0.79100
O7          O  0.78241104  0.60627355  0.81192090    -0.90800
O8          O  0.70990720  0.78068775  0.91563188    -0.76700
O9          O  0.78985631  0.80064310  0.83382186    -0.86200
O10         O  0.70746517  0.71754366  0.82627290    -0.85900
O11         O  0.83969370  0.74196999  0.74810787    -0.72700
O12         O  0.76516495  0.66765383  0.74670076    -0.84800
Zr13       Zr  0.69287393  0.81563091  0.67135759     2.26400
Zr14       Zr  0.82741407  0.83926482  0.75552906     2.06300
Zr15       Zr  0.66859960  0.68092142  0.74356472     2.10000
Zr16       Zr  0.69361616  0.81305335  0.83007398     1.78800
O17         O  0.64775286  0.61918798  0.66895369    -0.93600
O18         O  0.63735113  0.89146300  0.85855265    -0.41400
O19         O  0.65358678  0.77858080  0.74871594    -0.78100
O20         O  0.72927197  0.85123177  0.75500048    -0.96700
O21         O  0.78921479  0.80020928  0.67430620    -0.90000
O22         O  0.70563736  0.71925566  0.66566441    -0.92900
C23         C  0.73731853  0.74824350  0.94457591     1.00900
C24         C  0.74701112  0.57206716  0.79244879     1.13800
C25         C  0.93886411  0.76487443  0.80690709     1.04600
O26         O  0.85903455  0.90278180  0.82435204    -0.95000
O27         O  0.79195168  0.93277315  0.73279907    -0.90800
O28         O  0.71846396  0.91468557  0.67992998    -0.83900
C29         C  0.75154357  0.94944463  0.70283435     1.11200
O30         O  0.76387401  0.63545092  0.60882091    -0.97000
Zr31       Zr  0.80092785  0.70416075  0.66946847     1.88900
O32         O  0.71953959  0.79357759  0.57484063    -0.73700
O33         O  0.88422278  0.86623890  0.68353619    -0.52900
O34         O  0.89253361  0.70830066  0.63561287    -0.97600
O35         O  0.85506190  0.62210573  0.68655360    -0.54800
O36         O  0.80096544  0.75322397  0.59034999    -0.74200
C37         C  0.76568127  0.77332569  0.55815254     0.98200
O38         O  0.64295491  0.87499907  0.61237451    -0.63000
O39         O  0.60583346  0.64040867  0.80347212    -0.57800
O40         O  0.59398033  0.78733069  0.67830867    -0.94500
O41         O  0.57417812  0.70817726  0.71566407    -0.92900
O42         O  0.60207447  0.79091498  0.85238729    -0.93300
O43         O  0.72417805  0.89925688  0.86752003    -0.92100
C44         C  0.55854758  0.75174971  0.69225307     1.17000
H45         H  0.69130215  0.70049557  0.85578166     0.32900
H46         H  0.71606629  0.88722733  0.76446532     0.43800
H47         H  0.68954923  0.70514527  0.63302017     0.37300
H48         H  0.87624948  0.73079764  0.73932056     0.33800
H49         H  0.60735955  0.89328402  0.83204365     0.25600
H50         H  0.91005273  0.83522072  0.67725611     0.31500
H51         H  0.89912071  0.67400908  0.61504867     0.37400
H52         H  0.59673467  0.75524142  0.83474982     0.31900
H53         H  0.62708342  0.63321452  0.83636734     0.30800
H54         H  0.61860242  0.63777417  0.64821997     0.32500
H55         H  0.86955567  0.62893522  0.72297740     0.31400
H56         H  0.75500041  0.88967687  0.89152805     0.35400
H57         H  0.61421389  0.89009979  0.63577720     0.28200
H58         H  0.84496042  0.64382751  0.91447084     0.32400
H59         H  0.79274508  0.60695270  0.60465059     0.35200
H60         H  0.57866865  0.66895204  0.81390451     0.27900
H61         H  0.62442966  0.85065047  0.58648810     0.40700
H62         H  0.89149380  0.91843549  0.80913392     0.30800
H63         H  0.62042582  0.88214873  0.89235633     0.38400
H64         H  0.82863340  0.59349071  0.69103049     0.30200
H65         H  0.90659484  0.89524295  0.69943994     0.30300
H66         H  0.89454010  0.67482148  0.89784659     0.30600
C67         C  0.76184011  0.27127034  0.50410413    -0.02900
C68         C  0.18725799  0.23128991  0.50538318    -0.02900
C69         C  0.78998810  0.77196339  0.50057021    -0.02900
C70         C  0.20792731  0.74364111  0.49257767    -0.02900
C71         C  0.26417425  0.50062970  0.83502023    -0.02900
C72         C  0.27755596  0.49224765  0.17757793    -0.02900
C73         C  0.74949027  0.51169149  0.81471954    -0.02900
C74         C  0.75481902  0.49800789  0.16222313    -0.02900
C75         C  0.49257063  0.79158840  0.18726831    -0.02900
C76         C  0.50332892  0.17963935  0.23240138    -0.02900
C77         C  0.49575518  0.76855793  0.68276399    -0.02900
C78         C  0.50329610  0.17205632  0.71052233    -0.02900
Zr79       Zr  0.30200765  0.18469293  0.67090399     2.17500
O80         O  0.35442531  0.14385837  0.59740003    -0.51800
O81         O  0.27881855  0.08510555  0.67680887    -0.75000
O82         O  0.40512103  0.18413940  0.68496945    -0.81800
O83         O  0.17536970  0.23572740  0.60070050    -0.83500
O84         O  0.43376719  0.22304957  0.76342201    -0.79100
O85         O  0.25925589  0.20308012  0.57845540    -0.90800
O86         O  0.24405384  0.05521242  0.75254852    -0.76700
O87         O  0.31345237  0.16382370  0.76311214    -0.86200
O88         O  0.21328102  0.16637771  0.70257441    -0.85900
O89         O  0.33613456  0.26507827  0.71770620    -0.72700
O90         O  0.24648802  0.26749124  0.66475694    -0.84800
Zr91       Zr  0.20558598  0.30493475  0.83795400     2.26400
Zr92       Zr  0.34755149  0.24322930  0.81019866     2.06300
Zr93       Zr  0.15855189  0.24827422  0.69704249     2.10000
Zr94       Zr  0.22478016  0.14405825  0.79377291     1.78800
O95         O  0.11080673  0.31442086  0.64232302    -0.93600
O96         O  0.13499532  0.10973283  0.77399597    -0.41400
O97         O  0.17006946  0.22657263  0.78926126    -0.78100
O98         O  0.25938052  0.22068820  0.84082407    -0.96700
O99         O  0.29238394  0.32481789  0.80406981    -0.90000
O100        O  0.19281014  0.32630845  0.74587119    -0.92900
C101        C  0.26084535  0.04600040  0.70525801     1.00900
C102        C  0.21072431  0.22127693  0.56483607     1.13800
C103        C  0.44405731  0.19852651  0.71840498     1.04600
O104        O  0.40465802  0.18113471  0.86131944    -0.95000
O105        O  0.33466820  0.25168627  0.90753569    -0.90800
O106        O  0.25091922  0.28508715  0.93034422    -0.83900
C107        C  0.29911415  0.26493268  0.94364589     1.11200
O108        O  0.21787700  0.40190575  0.65879695    -0.97000
Zr109      Zr  0.27971065  0.34621574  0.71228893     1.92100
O110        O  0.23459885  0.40413448  0.83378869    -0.73700
O111        O  0.40713983  0.31693332  0.83542095    -0.52900
O112        O  0.36656697  0.38837056  0.72917248    -0.97600
O113        O  0.31887830  0.35918613  0.62542488    -0.54800
O114        O  0.26835516  0.43463638  0.75750014    -0.74200
C115        C  0.25330109  0.44345327  0.80547461     0.98200
O116        O  0.14713792  0.33213083  0.91212509    -0.63000
O117        O  0.09606885  0.17734471  0.67125101    -0.57800
O118        O  0.10232484  0.31147964  0.82069934    -0.94500
O119        O  0.07205188  0.27309125  0.74257334    -0.92900
O120        O  0.18089282  0.13348990  0.87886188    -0.93300
O121        O  0.27758101  0.08493521  0.85227678    -0.92100
C122        C  0.06253544  0.29900458  0.78714018     1.17000
H123        H  0.19572117  0.13824219  0.68183125     0.32900
H124        H  0.25982584  0.20557850  0.87548714     0.43800
H125        H  0.16823218  0.35730150  0.74272560     0.37300
H126        H  0.37001645  0.27481854  0.70286377     0.33800
H127        H  0.13192625  0.07797441  0.79646854     0.25600
H128        H  0.42292957  0.32797976  0.80174167     0.31500
H129        H  0.39395885  0.36606219  0.70927757     0.37400
H130        H  0.17573091  0.09419700  0.88167683     0.31900
H131        H  0.07202711  0.17411969  0.70196583     0.30800
H132        H  0.13955377  0.33692298  0.62873859     0.32500
H133        H  0.35029538  0.33323237  0.62319458     0.31400
H134        H  0.29546211  0.10964334  0.87831607     0.35400
H135        H  0.16934674  0.35500892  0.93639640     0.28200
H136        H  0.32812871  0.12323745  0.57533902     0.32400
H137        H  0.23890015  0.43340541  0.64924327     0.35200
H138        H  0.07240816  0.19349912  0.64335036     0.27900
H139        H  0.14211549  0.29854678  0.93156074     0.40700
H140        H  0.38183233  0.14974923  0.86658135     0.30800
H141        H  0.10932658  0.13723865  0.78968032     0.38400
H142        H  0.33501893  0.39527676  0.62794449     0.30200
H143        H  0.38326051  0.34798852  0.84690860     0.30300
H144        H  0.37788254  0.11531682  0.61353765     0.30600
Zr145      Zr  0.31928019  0.68705926  0.18109612     2.17500
O146        O  0.38355394  0.61810433  0.14624763    -0.51800
O147        O  0.30238777  0.69807170  0.08400033    -0.75000
O148        O  0.30318826  0.58780838  0.18587669    -0.81800
O149        O  0.39607685  0.80840819  0.20116324    -0.83500
O150        O  0.23213110  0.56525361  0.23593171    -0.79100
O151        O  0.41564115  0.72155107  0.17709168    -0.90800
O152        O  0.22805797  0.74868053  0.06201170    -0.76700
O153        O  0.22249748  0.67973256  0.17282743    -0.86200
O154        O  0.28394198  0.77547702  0.15832732    -0.85900
O155        O  0.28531041  0.66173235  0.26641519    -0.72700
O156        O  0.34201514  0.74925291  0.25394560    -0.84800
Zr157      Zr  0.17487755  0.80399425  0.30925139     2.26400
Zr158      Zr  0.18764525  0.65638388  0.25842417     2.06300
Zr159      Zr  0.30379181  0.83663815  0.23143502     2.10000
Zr160      Zr  0.18828926  0.76749860  0.14911587     1.78800
O161        O  0.37190092  0.88523653  0.28278982    -0.93600
O162        O  0.12724882  0.70526537  0.10340150    -0.41400
O163        O  0.20666655  0.82985707  0.22298256    -0.78100
O164        O  0.15294068  0.74447763  0.23325593    -0.96700
O165        O  0.21185324  0.71648286  0.33107405    -0.90000
O166        O  0.27129681  0.81026283  0.31658158    -0.92900
C167        C  0.27231094  0.72340632  0.04927200     1.00900
C168        C  0.43108187  0.77069898  0.18577180     1.13800
C169        C  0.27247500  0.55153091  0.20511763     1.04600
O170        O  0.11669163  0.61367972  0.20535070    -0.95000
O171        O  0.09497901  0.68448534  0.29279191    -0.90800
O172        O  0.07737200  0.77294255  0.31343071    -0.83900
C173        C  0.06064203  0.72391394  0.30665299     1.11200
O174        O  0.37256586  0.78056006  0.38540701    -0.97000
Zr175      Zr  0.30862045  0.72301528  0.33787580     1.88900
O176        O  0.19781360  0.77821652  0.40330219    -0.73700
O177        O  0.17367482  0.59249402  0.32785584    -0.52900
O178        O  0.29874402  0.63934717  0.38487449    -0.97600
O179        O  0.39842051  0.67850166  0.33778830    -0.54800
O180        O  0.27999236  0.74338525  0.42756594    -0.74200
C181        C  0.23212545  0.75994110  0.43923602     0.98200
O182        O  0.10610567  0.85974413  0.35593989    -0.63000
O183        O  0.31181660  0.89655173  0.15714534    -0.57800
O184        O  0.19306152  0.90439772  0.30819047    -0.94500
O185        O  0.26450887  0.92765233  0.25922651    -0.92900
O186        O  0.09847711  0.80416438  0.12641026    -0.93300
O187        O  0.18300956  0.85737542  0.11249891    -0.92100
C188        C  0.22461367  0.94105560  0.29032925     1.17000
H189        H  0.30039004  0.78913625  0.12721629     0.32900
H190        H  0.11458482  0.74495257  0.22548248     0.43800
H191        H  0.28044244  0.83554741  0.34498230     0.37300
H192        H  0.30145734  0.62733483  0.27602814     0.33800
H193        H  0.12372037  0.67515718  0.12776197     0.25600
H194        H  0.20811851  0.59123782  0.34859245     0.31500
H195        H  0.31961932  0.61058951  0.36508209     0.37400
H196        H  0.08708023  0.82565811  0.15846158     0.31900
H197        H  0.33849624  0.87812824  0.13313695     0.30800
H198        H  0.38187229  0.86086046  0.31204786     0.32500
H199        H  0.40352212  0.66344633  0.37357720     0.31400
H200        H  0.22096511  0.86885988  0.11220498     0.35400
H201        H  0.09185395  0.88586281  0.32976950     0.28200
H202        H  0.41984788  0.62491885  0.16185188     0.32400
H203        H  0.38604800  0.75929020  0.41587440     0.35200
H204        H  0.33097612  0.92817604  0.17230067     0.27900
H205        H  0.12616811  0.88168892  0.38288689     0.40700
H206        H  0.11123450  0.57889018  0.22245352     0.30800
H207        H  0.14759450  0.68893628  0.07296555     0.38400
H208        H  0.39523502  0.64651606  0.31334173     0.30200
H209        H  0.14735982  0.61145821  0.35177546     0.30300
H210        H  0.38650282  0.62560518  0.10806705     0.30600
Zr211      Zr  0.81750903  0.30174613  0.17899119     2.17500
O212        O  0.88965202  0.32476676  0.11982059    -0.51800
O213        O  0.78955158  0.40130682  0.17010213    -0.75000
O214        O  0.79729287  0.27634795  0.08060194    -0.81800
O215        O  0.92618788  0.26357857  0.30180213    -0.83500
O216        O  0.70875121  0.25626515  0.08719681    -0.79100
O217        O  0.91263801  0.30166349  0.22163020    -0.90800
O218        O  0.74517340  0.43980542  0.23985030    -0.76700
O219        O  0.72376856  0.32836328  0.19176038    -0.86200
O220        O  0.80773988  0.33414227  0.26933523    -0.85900
O221        O  0.76758723  0.21919317  0.16579515    -0.72700
O222        O  0.84210034  0.22696852  0.23536991    -0.84800
Zr223      Zr  0.68607830  0.20246573  0.32444457     2.26400
Zr224      Zr  0.67384933  0.24726650  0.17748505     2.06300
Zr225      Zr  0.83062956  0.25886423  0.32575732     2.10000
Zr226      Zr  0.71430140  0.35883422  0.28255080     1.78800
O227        O  0.88712281  0.19759378  0.37866631    -0.93600
O228        O  0.61867974  0.38825833  0.27485314    -0.41400
O229        O  0.73734298  0.28404017  0.33794909    -0.78100
O230        O  0.66115622  0.27879888  0.26839215    -0.96700
O231        O  0.69714642  0.17242790  0.23405546    -0.90000
O232        O  0.78054312  0.17703379  0.31381970    -0.92900
C233        C  0.76624293  0.44364620  0.19412564     1.00900
C234        C  0.94462839  0.28783348  0.26194614     1.13800
C235        C  0.75151021  0.26193172  0.05863771     1.04600
O236        O  0.61032761  0.31109804  0.13568037    -0.95000
O237        O  0.57854031  0.23224284  0.19845814    -0.90800
O238        O  0.59172219  0.19700001  0.28011169    -0.83900
C239        C  0.56016363  0.20842469  0.23870737     1.11200
O240        O  0.88782356  0.15061354  0.24208146    -0.97000
Zr241      Zr  0.79062401  0.14672518  0.22335311     1.88900
O242        O  0.70711835  0.09922256  0.33079641    -0.73700
O243        O  0.64521225  0.16793755  0.12654624    -0.52900
O244        O  0.76009846  0.10933094  0.13738956    -0.97600
O245        O  0.84769874  0.07111139  0.18815371    -0.54800
O246        O  0.75889491  0.06535942  0.26341644    -0.74200
C247        C  0.73140498  0.05798224  0.30499408     0.98200
O248        O  0.62242210  0.18327175  0.39342061    -0.63000
O249        O  0.86922940  0.33794750  0.36934491    -0.57800
O250        O  0.70389757  0.23782838  0.42108683    -0.94500
O251        O  0.79000685  0.26460318  0.41371087    -0.92900
O252        O  0.69454405  0.45022289  0.31869233    -0.93300
O253        O  0.73448066  0.37119110  0.37697204    -0.92100
C254        C  0.74787154  0.25796138  0.44239964     1.17000
H255        H  0.83041690  0.36459027  0.27686883     0.32900
H256        H  0.62359446  0.28834787  0.27438157     0.43800
H257        H  0.79351770  0.15037188  0.33864516     0.37300
H258        H  0.77522378  0.20231600  0.13172704     0.33800
H259        H  0.60394075  0.37112673  0.24177591     0.25600
H260        H  0.64303894  0.13899790  0.15245171     0.31500
H261        H  0.73260560  0.08297429  0.14618579     0.37400
H262        H  0.66618471  0.44737985  0.34571120     0.31900
H263        H  0.89264028  0.32358995  0.39827577     0.30800
H264        H  0.90036697  0.22035519  0.40901023     0.32500
H265        H  0.86945494  0.05714513  0.21847079     0.31400
H266        H  0.69897159  0.36885321  0.39435549     0.35400
H267        H  0.59446199  0.21287307  0.39155827     0.28200
H268        H  0.87204930  0.34747757  0.09237351     0.32400
H269        H  0.89263823  0.13775946  0.27878858     0.35200
H270        H  0.83874037  0.35763829  0.38720473     0.27900
H271        H  0.60415380  0.15042857  0.38000189     0.40700
H272        H  0.63327909  0.33892286  0.12120303     0.30800
H273        H  0.59967363  0.37226883  0.30457398     0.38400
H274        H  0.82300540  0.04137919  0.17905944     0.30200
H275        H  0.60719029  0.17622503  0.11558185     0.30300
H276        H  0.90031925  0.29045051  0.10076109     0.30600
Zr277      Zr  0.69765763  0.20313870  0.67265305     2.17500
O278        O  0.66101084  0.15733529  0.59323537    -0.51800
O279        O  0.59715466  0.19382016  0.68640919    -0.75000
O280        O  0.71733024  0.10546431  0.68377867    -0.81800
O281        O  0.74141353  0.31604922  0.59135117    -0.83500
O282        O  0.74630426  0.07966643  0.76527120    -0.79100
O283        O  0.71326760  0.23032115  0.57919803    -0.90800
O284        O  0.56115809  0.24096638  0.75612589    -0.76700
O285        O  0.67108998  0.20129490  0.76314941    -0.86200
O286        O  0.66799560  0.29455287  0.69184953    -0.85900
O287        O  0.77919009  0.17602132  0.72316978    -0.72700
O288        O  0.77535997  0.26032030  0.66399372    -0.84800
Zr289      Zr  0.80082815  0.31904205  0.82814294     2.26400
Zr290      Zr  0.75070393  0.17228622  0.81420362     2.06300
Zr291      Zr  0.74468358  0.35181859  0.68588413     2.10000
Zr292      Zr  0.64113630  0.29290815  0.78196804     1.78800
O293        O  0.81002150  0.40411067  0.63972200    -0.93600
O294        O  0.58417254  0.27344680  0.85613392    -0.41400
O295        O  0.71992844  0.34806169  0.77744181    -0.78100
O296        O  0.72021045  0.26448995  0.83344819    -0.96700
O297        O  0.82874327  0.22814361  0.80635652    -0.90000
O298        O  0.82433861  0.32340202  0.73720212    -0.92900
C299        C  0.55616960  0.20689376  0.71710258     1.00900
C300        C  0.73208735  0.27371956  0.56029159     1.13800
C301        C  0.73354189  0.06767992  0.71575177     1.04600
O302        O  0.67435497  0.12963080  0.85374892    -0.95000
O303        O  0.76187069  0.20343194  0.91060232    -0.90800
O304        O  0.78552493  0.29112285  0.92168657    -0.83900
C305        C  0.76911683  0.24674605  0.94114665     1.11200
O306        O  0.87190628  0.16614120  0.64427311    -0.97000
Zr307      Zr  0.85472285  0.23251285  0.71584157     1.88900
O308        O  0.90505352  0.31590442  0.81693025    -0.73700
O309        O  0.81601763  0.11263797  0.85925544    -0.52900
O310        O  0.90340483  0.15516789  0.75403509    -0.97600
O311        O  0.91628103  0.28267346  0.66290302    -0.54800
O312        O  0.94129544  0.26313512  0.75076427    -0.74200
C313        C  0.94732341  0.29711553  0.78947778     0.98200
O314        O  0.83501388  0.37109013  0.90517012    -0.63000
O315        O  0.66864018  0.40591480  0.65062122    -0.57800
O316        O  0.77517173  0.41615364  0.81637359    -0.94500
O317        O  0.74777616  0.44341737  0.73484770    -0.92900
O318        O  0.57960147  0.35178957  0.73097233    -0.93300
O319        O  0.62352723  0.37088701  0.84125724    -0.92100
C320        C  0.75946189  0.45429382  0.78458217     1.17000
H321        H  0.63912232  0.30464967  0.66731896     0.32900
H322        H  0.70477060  0.26849370  0.86848430     0.43800
H323        H  0.85275104  0.34851384  0.73252934     0.37300
H324        H  0.79651985  0.14253923  0.71108312     0.33800
H325        H  0.58024813  0.23373771  0.85493282     0.25600
H326        H  0.82856686  0.08577062  0.83175472     0.31500
H327        H  0.91758239  0.16815850  0.78907920     0.37400
H328        H  0.57900153  0.38745313  0.74999762     0.31900
H329        H  0.68550618  0.43596201  0.63272838     0.30800
H330        H  0.78895636  0.43615545  0.62716015     0.32500
H331        H  0.89323662  0.30883096  0.64303180     0.31400
H332        H  0.65205374  0.36796635  0.86927431     0.35400
H333        H  0.84408597  0.40670924  0.89189618     0.28200
H334        H  0.63588618  0.13075817  0.60654108     0.32400
H335        H  0.91049250  0.15457011  0.64881979     0.35200
H336        H  0.65133067  0.42326597  0.68237736     0.27900
H337        H  0.87074984  0.35383668  0.91395656     0.40700
H338        H  0.66374092  0.15412295  0.88401864     0.30800
H339        H  0.54764071  0.28883718  0.84723921     0.38400
H340        H  0.93150547  0.25668176  0.63606807     0.30200
H341        H  0.84784077  0.13514169  0.86670940     0.30300
H342        H  0.69156259  0.13516673  0.57825201     0.30600
C343        C  0.71086772  0.74865037  0.00106550    -0.02900
C344        C  0.73840487  0.24897121  0.99687346    -0.02900
C345        C  0.29997046  0.73635755  0.99603513    -0.02900
C346        C  0.32203718  0.25154592  0.00249556    -0.02900
Zr347      Zr  0.29939542  0.79539147  0.66719348     2.17500
O348        O  0.34887145  0.84459526  0.60247656    -0.51800
O349        O  0.26800112  0.77822628  0.57081574    -0.75000
O350        O  0.39855981  0.77252309  0.67109702    -0.81800
O351        O  0.20578311  0.91520887  0.72416551    -0.83500
O352        O  0.42791550  0.70016579  0.71818739    -0.79100
O353        O  0.28433384  0.89502509  0.68140842    -0.90800
O354        O  0.20760088  0.71317195  0.57949767    -0.76700
O355        O  0.29220168  0.69917503  0.66713767    -0.86200
O356        O  0.20308667  0.78379954  0.66771454    -0.85900
O357        O  0.33972608  0.76397461  0.75006674    -0.72700
O358        O  0.26039517  0.83776656  0.74579318    -0.84800
Zr359      Zr  0.19997076  0.69457393  0.82566833     2.26400
Zr360      Zr  0.33598518  0.66645323  0.74763485     2.06300
Zr361      Zr  0.16506070  0.82700170  0.74716196     2.10000
Zr362      Zr  0.19616968  0.68799933  0.66844512     1.78800
O363        O  0.13488762  0.89736183  0.81124895    -0.93600
O364        O  0.14251255  0.61013101  0.68858961    -0.41400
O365        O  0.15706675  0.72975387  0.74651946    -0.78100
O366        O  0.23947010  0.65483766  0.74520625    -0.96700
O367        O  0.29538472  0.71018440  0.82548874    -0.90000
O368        O  0.20453369  0.79125274  0.82803992    -0.92900
C369        C  0.23310605  0.74484678  0.55053320     1.00900
C370        C  0.24798436  0.93049041  0.69878989     1.13800
C371        C  0.43795194  0.74212364  0.69032319     1.04600
O372        O  0.36490484  0.59924266  0.68006744    -0.95000
O373        O  0.30610223  0.57640221  0.78303179    -0.90800
O374        O  0.22731134  0.59559694  0.82613346    -0.83900
C375        C  0.26512264  0.56058905  0.81043630     1.11200
O376        O  0.35477809  0.88340041  0.80842815    -0.97000
Zr377      Zr  0.29899531  0.80654222  0.82610346     1.88900
O378        O  0.22797540  0.71653793  0.92226462    -0.73700
O379        O  0.40213345  0.63993398  0.81577402    -0.52900
O380        O  0.38753038  0.81247443  0.86980425    -0.97600
O381        O  0.25021148  0.87940990  0.87536081    -0.54800
O382        O  0.30261933  0.76340597  0.90834934    -0.74200
C383        C  0.27194176  0.73936999  0.93950335     0.98200
O384        O  0.15404644  0.62456944  0.87033812    -0.63000
O385        O  0.10259336  0.85712604  0.67704918    -0.57800
O386        O  0.10012007  0.72479479  0.81681598    -0.94500
O387        O  0.07268209  0.80185910  0.77632891    -0.92900
O388        O  0.10492618  0.70264443  0.63231319    -0.93300
O389        O  0.22595237  0.60850117  0.61553643    -0.92100
C390        C  0.06125087  0.75915433  0.80152147     1.17000
H391        H  0.18557298  0.79886871  0.63665925     0.32900
H392        H  0.23128595  0.61756415  0.73841936     0.43800
H393        H  0.18661656  0.80612439  0.85934828     0.37300
H394        H  0.37559089  0.77621011  0.75816695     0.33800
H395        H  0.13173226  0.59294991  0.65407798     0.25600
H396        H  0.42827127  0.66940493  0.81821386     0.31500
H397        H  0.40597596  0.77700142  0.86186137     0.37400
H398        H  0.09979449  0.67191183  0.60667648     0.31900
H399        H  0.12417848  0.88035161  0.65480593     0.30800
H400        H  0.11362588  0.87870671  0.83764948     0.32500
H401        H  0.24476829  0.86503572  0.91100336     0.31400
H402        H  0.26045222  0.59608954  0.63255709     0.35400
H403        H  0.13578487  0.64311332  0.90076614     0.28200
H404        H  0.37074988  0.81701037  0.58209373     0.32400
H405        H  0.35686821  0.90603327  0.84157234     0.35200
H406        H  0.07675685  0.88268700  0.69535424     0.27900
H407        H  0.12527002  0.61250454  0.84519677     0.40700
H408        H  0.40491035  0.59666874  0.68390777     0.30800
H409        H  0.10836175  0.62557732  0.70367713     0.38400
H410        H  0.27580978  0.90885148  0.88173991     0.30200
H411        H  0.42274828  0.60865530  0.79963153     0.30300
H412        H  0.37564941  0.86556750  0.62345779     0.30600
C413        C  0.74757347  0.01113404  0.68444803    -0.02900
C414        C  0.24910302  0.98992955  0.67522552    -0.02900
C415        C  0.73958212  0.99973763  0.33120165    -0.02900
C416        C  0.22181213  0.00002310  0.31969164    -0.02900
Zr417      Zr  0.67766102  0.68923010  0.18354485     2.17500
O418        O  0.60614716  0.63149970  0.14811407    -0.51800
O419        O  0.69729063  0.71161348  0.08842351    -0.75000
O420        O  0.57744421  0.72444829  0.18006601    -0.81800
O421        O  0.78426168  0.56936364  0.22832249    -0.83500
O422        O  0.58772987  0.81465119  0.19475722    -0.79100
O423        O  0.71034329  0.59018592  0.17713181    -0.90800
O424        O  0.77988389  0.74286332  0.07006328    -0.76700
O425        O  0.70822016  0.77684024  0.16246624    -0.86200
O426        O  0.77519228  0.68224309  0.18212420    -0.85900
O427        O  0.65136458  0.74972353  0.25800927    -0.72700
O428        O  0.71099616  0.66399646  0.27190787    -0.84800
Zr429      Zr  0.81301961  0.80966076  0.31400283     2.26400
Zr430      Zr  0.67842415  0.83751333  0.23390599     2.06300
Zr431      Zr  0.80864819  0.65814013  0.26972240     2.10000
Zr432      Zr  0.80565146  0.76913202  0.15983969     1.78800
O433        O  0.80035027  0.61024367  0.35203615    -0.93600
O434        O  0.80072985  0.85196208  0.11006157    -0.41400
O435        O  0.83996764  0.74444184  0.24499081    -0.78100
O436        O  0.77628351  0.83370275  0.22770743    -0.96700
O437        O  0.71621208  0.81402711  0.31909672    -0.90000
O438        O  0.78406896  0.72199623  0.33957357    -0.92900
C439        C  0.73285274  0.72831963  0.05509655     1.00900
C440        C  0.74772048  0.55536931  0.19371209     1.13800
C441        C  0.55661518  0.77372372  0.18451493     1.04600
O442        O  0.66094341  0.90467485  0.16688999    -0.95000
O443        O  0.70382583  0.92914550  0.26703765    -0.90800
O444        O  0.78018808  0.90764991  0.31446053    -0.83900
C445        C  0.74307362  0.94309515  0.29857964     1.11200
O446        O  0.69744622  0.64283892  0.39001474    -0.97000
Zr447      Zr  0.68719912  0.72758005  0.34381798     1.88900
O448        O  0.79316865  0.80356980  0.41012559    -0.73700
O449        O  0.61336922  0.87472652  0.29801480    -0.52900
O450        O  0.61607202  0.78317566  0.38675463    -0.97600
O451        O  0.59907811  0.68562600  0.34541383    -0.54800
O452        O  0.71771052  0.76110936  0.43192196    -0.74200
C453        C  0.76202312  0.78395457  0.44530305     0.98200
O454        O  0.87832524  0.87840930  0.33778092    -0.63000
O455        O  0.88544212  0.59381762  0.26076944    -0.57800
O456        O  0.91328368  0.77398938  0.31691380    -0.94500
O457        O  0.90212868  0.68604143  0.29308191    -0.92900
O458        O  0.87433151  0.71045296  0.11680006    -0.93300
O459        O  0.89319094  0.81124767  0.17026649    -0.92100
C460        C  0.93387004  0.72530170  0.30696549     1.17000
H461        H  0.78684792  0.65622861  0.15495902     0.32900
H462        H  0.78870476  0.86880099  0.21887051     0.43800
H463        H  0.80106071  0.71076490  0.37245191     0.37300
H464        H  0.61307634  0.75007038  0.26457636     0.33800
H465        H  0.76300737  0.86575125  0.11516494     0.25600
H466        H  0.63389996  0.88041365  0.33175074     0.31500
H467        H  0.60953972  0.76588341  0.42089290     0.37400
H468        H  0.88663616  0.73077066  0.08624847     0.31900
H469        H  0.87448584  0.55969264  0.27625602     0.30800
H470        H  0.83740551  0.60927381  0.36787562     0.32500
H471        H  0.60206973  0.65431703  0.31990901     0.31400
H472        H  0.90483332  0.81820023  0.13374114     0.35400
H473        H  0.90409827  0.87790625  0.30801609     0.28200
H474        H  0.62489764  0.59902885  0.13281743     0.32400
H475        H  0.68913304  0.61411726  0.36302786     0.35200
H476        H  0.88955221  0.58539756  0.22238249     0.27900
H477        H  0.89960449  0.86460953  0.36841845     0.40700
H478        H  0.69604173  0.92196826  0.16224901     0.30800
H479        H  0.82292199  0.87846596  0.13020055     0.38400
H480        H  0.59654729  0.66951627  0.38073427     0.30200
H481        H  0.60379386  0.91165661  0.28616919     0.30300
H482        H  0.59096954  0.64951894  0.11629806     0.30600
C483        C  0.00041924  0.74141108  0.81294440    -0.02900
C484        C  0.99784488  0.70596472  0.30390327    -0.02900
C485        C  0.00331951  0.32765852  0.79575802    -0.02900
C486        C  0.00138863  0.31640843  0.26911800    -0.02900
Zr487      Zr  0.17150075  0.19632676  0.30601295     2.17500
O488        O  0.09582744  0.14135559  0.32924423    -0.51800
O489        O  0.18427472  0.20612421  0.40737825    -0.75000
O490        O  0.18951045  0.09459957  0.30274276    -0.81800
O491        O  0.09760826  0.32926609  0.27561898    -0.83500
O492        O  0.26891774  0.06562673  0.26512203    -0.79100
O493        O  0.07716267  0.24181398  0.28709774    -0.90800
O494        O  0.26212806  0.23950674  0.44058600    -0.76700
O495        O  0.26628812  0.18147924  0.32370592    -0.86200
O496        O  0.20520910  0.28230909  0.33709347    -0.85900
O497        O  0.21365679  0.16603440  0.22261976    -0.72700
O498        O  0.16055711  0.25817302  0.23336116    -0.84800
Zr499      Zr  0.33211868  0.29771638  0.20042631     2.26400
Zr500      Zr  0.30918225  0.15206249  0.24150282     2.06300
Zr501      Zr  0.19487388  0.34329453  0.26475048     2.10000
Zr502      Zr  0.29978539  0.26621362  0.35585618     1.78800
O503        O  0.13641947  0.40483254  0.21427886    -0.93600
O504        O  0.29721292  0.34044373  0.42184094    -0.41400
O505        O  0.28975959  0.32883662  0.28379526    -0.78100
O506        O  0.34142967  0.23738103  0.27493108    -0.96700
O507        O  0.29742276  0.21268643  0.16880773    -0.90000
O508        O  0.23737696  0.31287947  0.18306371    -0.92900
C509        C  0.21502457  0.22122127  0.44823335     1.00900
C510        C  0.06214730  0.29213509  0.27873256     1.13800
C511        C  0.22514318  0.05588287  0.28994351     1.04600
O512        O  0.36563027  0.09452283  0.29802510    -0.95000
O513        O  0.40691617  0.16576642  0.22615838    -0.90800
O514        O  0.42754316  0.25327396  0.21374443    -0.83900
C515        C  0.44252162  0.20304094  0.22230126     1.11200
O516        O  0.20158519  0.14395969  0.09940070    -0.97000
Zr517      Zr  0.20234624  0.22886944  0.15110793     1.88900
O518        O  0.32244011  0.28057463  0.09978860    -0.73700
O519        O  0.32189991  0.09454256  0.16173803    -0.52900
O520        O  0.11282612  0.19344815  0.13260070    -0.97600
O521        O  0.14491318  0.29720625  0.10762965    -0.54800
O522        O  0.24586454  0.24482726  0.06623365    -0.74200
C523        C  0.29321098  0.26259996  0.05898801     0.98200
O524        O  0.40587017  0.35740276  0.18301246    -0.63000
O525        O  0.18605124  0.40248799  0.34393857    -0.57800
O526        O  0.31170798  0.39866693  0.19663487    -0.94500
O527        O  0.23349275  0.42835523  0.23597980    -0.92900
O528        O  0.36751825  0.20154214  0.38962218    -0.93300
O529        O  0.38496778  0.31338775  0.36458193    -0.92100
C530        C  0.27604194  0.43737878  0.20900971     1.17000
H531        H  0.18600053  0.29666249  0.36787521     0.32900
H532        H  0.37782579  0.23400144  0.28881336     0.43800
H533        H  0.23202311  0.33981415  0.15652704     0.37300
H534        H  0.19847349  0.13234460  0.21022541     0.33800
H535        H  0.30790217  0.37295809  0.40331696     0.25600
H536        H  0.32636236  0.05730656  0.17475386     0.31500
H537        H  0.09290250  0.19991067  0.16614342     0.37400
H538        H  0.34805065  0.17947447  0.41462816     0.31900
H539        H  0.15360637  0.39043889  0.36221813     0.30800
H540        H  0.13244721  0.38673584  0.17878553     0.32500
H541        H  0.17022503  0.31871098  0.08774494     0.31400
H542        H  0.39307611  0.32461199  0.32822911     0.35400
H543        H  0.42652616  0.36073636  0.21702083     0.28200
H544        H  0.07623271  0.13377405  0.29524346     0.32400
H545        H  0.23900347  0.12864094  0.10286237     0.35200
H546        H  0.21696796  0.39213082  0.36745667     0.27900
H547        H  0.43050732  0.33687959  0.15855498     0.40700
H548        H  0.37733649  0.06349338  0.27455527     0.30800
H549        H  0.32755651  0.33252556  0.44705707     0.38400
H550        H  0.12445629  0.27748450  0.07936464     0.30200
H551        H  0.35824077  0.10293095  0.14883686     0.30300
H552        H  0.07083744  0.16564812  0.34996808     0.30600
C553        C  0.00416478  0.34958006  0.85301200    -0.03800
C554        C  0.00241871  0.31218642  0.89389456    -0.09600
C555        C  0.00044267  0.32996188  0.94675975    -0.17200
C556        C  0.00113631  0.38520411  0.95954904     0.24900
C557        C  0.00501649  0.42255428  0.91988115    -0.18900
C558        C  0.00696097  0.40503039  0.86684561    -0.07800
C559        C  0.00092806  0.40222701  0.01399250    -0.14300
C560        C  0.00400381  0.40392111  0.06143122    -0.14000
C561        C  0.00971024  0.38580241  0.11413024     0.24800
C562        C  0.00941932  0.42140760  0.15832579    -0.19400
C563        C  0.01051213  0.40059899  0.20930393    -0.07900
C564        C  0.00857612  0.34402268  0.21587635    -0.03900
C565        C  0.01416299  0.30944945  0.17057296    -0.09200
C566        C  0.01446163  0.33014919  0.12029331    -0.16900
H567        H  0.00168681  0.26914713  0.88453924     0.11300
H568        H  0.99856529  0.30063384  0.97765792     0.10500
H569        H  0.00735659  0.46516600  0.92988249     0.10500
H570        H  0.01110227  0.43511946  0.83721331     0.11000
H571        H  0.00797648  0.46478583  0.15342463     0.11100
H572        H  0.01261041  0.42900929  0.24273618     0.11000
H573        H  0.01526151  0.26594956  0.17427837     0.11200
H574        H  0.01606851  0.30245025  0.08596663     0.10000
C575        C  0.00057508  0.65793399  0.34170912    -0.03800
C576        C  0.98196675  0.66666702  0.39421900    -0.09600
C577        C  0.98016911  0.62394112  0.42892744    -0.17200
C578        C  0.99674935  0.57192196  0.41183076     0.24900
C579        C  0.02196080  0.56415453  0.36283135    -0.18900
C580        C  0.02566113  0.60699003  0.32902835    -0.07800
C581        C  0.98187748  0.52454024  0.43854639    -0.14300
C582        C  0.97048236  0.47773257  0.43514074    -0.14000
C583        C  0.96569366  0.42994828  0.40182823     0.24800
C584        C  0.00028993  0.38504856  0.40969691    -0.19400
C585        C  0.01175789  0.34855420  0.36746680    -0.07900
C586        C  0.98914575  0.35674684  0.31609512    -0.03900
C587        C  0.94831519  0.39803568  0.31138480    -0.09200
C588        C  0.93800005  0.43509843  0.35321771    -0.16900
H589        H  0.96740918  0.70646547  0.40788951     0.11300
H590        H  0.96523532  0.63151156  0.46829616     0.10500
H591        H  0.03744440  0.52437311  0.34992129     0.10500
H592        H  0.04818698  0.59924491  0.29316374     0.11000
H593        H  0.02043744  0.37960646  0.44759871     0.11100
H594        H  0.03901359  0.31443124  0.37524868     0.11000
H595        H  0.92570794  0.40293926  0.27448602     0.11200
H596        H  0.91066681  0.46958142  0.34657922     0.10000
C597        C  0.99549086  0.69119259  0.77550101    -0.03800
C598        C  0.00394235  0.69698868  0.72049019    -0.09600
C599        C  0.99767673  0.65360332  0.68425404    -0.17200
C600        C  0.98219388  0.60403342  0.70231634     0.24900
C601        C  0.97056910  0.59830992  0.75594051    -0.18900
C602        C  0.97468943  0.64196245  0.79160668    -0.07800
C603        C  0.97919441  0.55725641  0.66780813    -0.14300
C604        C  0.97779475  0.50935437  0.65994684    -0.14000
C605        C  0.97908524  0.45667842  0.68119961     0.24800
C606        C  0.02792474  0.42676654  0.68206015    -0.19400
C607        C  0.03651874  0.38629435  0.71879952    -0.07900
C608        C  0.99613539  0.37395186  0.75541180    -0.03900
C609        C  0.94735663  0.40594593  0.75400380    -0.09200
C610        C  0.93847385  0.44543337  0.71652630    -0.16900
H611        H  0.01531440  0.73543514  0.70554457     0.11300
H612        H  0.00513252  0.65858721  0.64245894     0.10500
H613        H  0.95692684  0.56023536  0.77004229     0.10500
H614        H  0.96088599  0.63672381  0.83149537     0.11000
H615        H  0.06103793  0.43746800  0.65715228     0.11100
H616        H  0.07640590  0.36765390  0.71991869     0.11000
H617        H  0.91648257  0.40236011  0.78333449     0.11200
H618        H  0.90159951  0.47050700  0.71808602     0.10000
C619        C  0.00567745  0.72962775  0.87217550    -0.03800
C620        C  0.99012152  0.76981965  0.91063294    -0.09600
C621        C  0.99411166  0.75901182  0.96450983    -0.17200
C622        C  0.01566003  0.70893404  0.98003076     0.24900
C623        C  0.03609890  0.67119008  0.94321020    -0.18900
C624        C  0.03155844  0.68168281  0.88983704    -0.07800
C625        C  0.01235710  0.69369137  0.03309792    -0.14300
C626        C  0.00653790  0.68362594  0.07829760    -0.14000
C627        C  0.99986474  0.68586514  0.13358430     0.24800
C628        C  0.99456056  0.63929625  0.16228087    -0.19400
C629        C  0.99066439  0.64378509  0.21737446    -0.07900
C630        C  0.99611998  0.69465299  0.24383161    -0.03900
C631        C  0.99739580  0.74115213  0.21295168    -0.09200
C632        C  0.99903707  0.73667691  0.15844670    -0.16900
H633        H  0.97343142  0.80878617  0.89890862     0.11300
H634        H  0.97909479  0.78880296  0.99375413     0.10500
H635        H  0.05383177  0.63280492  0.95560049     0.10500
H636        H  0.04745773  0.65145425  0.86221274     0.11000
H637        H  0.99363464  0.59986568  0.14229364     0.11100
H638        H  0.98292442  0.60753020  0.23774795     0.11000
H639        H  0.99818642  0.78122048  0.23172821     0.11200
H640        H  0.00055501  0.77293051  0.13564283     0.10000
C641        C  0.79630484  0.00478510  0.35743998    -0.03800
C642        C  0.84095800  0.00420730  0.32298948    -0.09600
C643        C  0.89375124  0.00533699  0.34239176    -0.17200
C644        C  0.90402161  0.00547267  0.39691357     0.24900
C645        C  0.86087520  0.00532215  0.43210056    -0.18900
C646        C  0.80714409  0.00724576  0.41277000    -0.07800
C647        C  0.95959602  0.00640830  0.41438551    -0.14300
C648        C  0.00818806  0.00754401  0.41206934    -0.14000
C649        C  0.06200141  0.00764043  0.39136147     0.24800
C650        C  0.10773759  0.01107955  0.42456176    -0.19400
C651        C  0.15978754  0.00794140  0.40316066    -0.07900
C652        C  0.16651362  0.00313017  0.34749983    -0.03900
C653        C  0.11955670  0.00134989  0.31466997    -0.09200
C654        C  0.06807081  0.00313000  0.33635943    -0.16900
H655        H  0.83493223  0.00032652  0.28039779     0.11300
H656        H  0.92678899  0.00475048  0.31452364     0.10500
H657        H  0.86859795  0.00573322  0.47432700     0.10500
H658        H  0.77485035  0.01041892  0.44128465     0.11000
H659        H  0.10312040  0.01574409  0.46679829     0.11100
H660        H  0.19401964  0.00914445  0.43047931     0.11000
H661        H  0.12307875  0.99785800  0.27180933     0.11200
H662        H  0.03289953  0.00062416  0.31006718     0.10000
C663        C  0.29296814  0.98380352  0.63231450    -0.03800
C664        C  0.34720787  0.99619787  0.64654018    -0.09600
C665        C  0.38783852  0.99291643  0.60904007    -0.17200
C666        C  0.37577210  0.97421642  0.55767135     0.24900
C667        C  0.32558688  0.95123891  0.54633501    -0.18900
C668        C  0.28510007  0.95416181  0.58417799    -0.07800
C669        C  0.40588730  0.99087061  0.51364609    -0.14300
C670        C  0.40193268  0.00603507  0.46903321    -0.14000
C671        C  0.36584276  0.01047594  0.42434148     0.24800
C672        C  0.32846473  0.05425880  0.42193865    -0.19400
C673        C  0.28158069  0.05045517  0.38998042    -0.07900
C674        C  0.27057304  0.00228019  0.36006993    -0.03900
C675        C  0.30824914  0.95834334  0.36574132    -0.09200
C676        C  0.35546147  0.96279289  0.39596774    -0.16900
H677        H  0.35790677  0.01074232  0.68631815     0.11300
H678        H  0.42720456  0.00758481  0.61976835     0.10500
H679        H  0.31659914  0.93383834  0.50717169     0.10500
H680        H  0.24779241  0.93372837  0.57542110     0.11000
H681        H  0.33401126  0.09013256  0.44703832     0.11100
H682        H  0.25350384  0.08504796  0.38920641     0.11000
H683        H  0.30172709  0.91921998  0.34823875     0.11200
H684        H  0.38184287  0.92718218  0.40063286     0.10000
C685        C  0.69420687  0.98877055  0.37028908    -0.03800
C686        C  0.70108351  0.94561596  0.40580644    -0.09600
C687        C  0.65917801  0.93121871  0.43819108    -0.17200
C688        C  0.60907164  0.95909854  0.43570816     0.24900
C689        C  0.59989008  0.99792018  0.39753748    -0.18900
C690        C  0.64132005  0.01167996  0.36406628    -0.07800
C691        C  0.57807910  0.96316293  0.48309479    -0.14300
C692        C  0.58027590  0.97958013  0.52839239    -0.14000
C693        C  0.61418396  0.00175643  0.56965265     0.24800
C694        C  0.60518611  0.99366151  0.62319958    -0.19400
C695        C  0.64798388  0.99960987  0.65971491    -0.07900
C696        C  0.70066093  0.01145057  0.64257352    -0.03900
C697        C  0.70514537  0.02969858  0.59053621    -0.09200
C698        C  0.66272063  0.02355004  0.55412772    -0.16900
H699        H  0.73942620  0.92325116  0.40912915     0.11300
H700        H  0.66735763  0.90143741  0.46821750     0.10500
H701        H  0.56172715  0.02006206  0.39616475     0.10500
H702        H  0.63129292  0.04031362  0.33364833     0.11000
H703        H  0.56695362  0.97877045  0.63606969     0.11100
H704        H  0.64125809  0.99105401  0.70099283     0.11000
H705        H  0.74048187  0.04956809  0.57745796     0.11200
H706        H  0.66884628  0.03345949  0.51305997     0.10000
C707        C  0.80562785  0.01871939  0.66393060    -0.03800
C708        C  0.84613523  0.03470369  0.70136510    -0.09600
C709        C  0.90021498  0.03790123  0.68722543    -0.17200
C710        C  0.91563978  0.02566707  0.63512348     0.24900
C711        C  0.87699189  0.00906739  0.59767780    -0.18900
C712        C  0.82352672  0.00157479  0.61279360    -0.07800
C713        C  0.97221305  0.02298850  0.62265968    -0.14300
C714        C  0.02083587  0.01822818  0.62110311    -0.14000
C715        C  0.07793487  0.01245640  0.63202605     0.24800
C716        C  0.11600186  0.00868634  0.59154661    -0.19400
C717        C  0.17162038  0.00652857  0.60357756    -0.07900
C718        C  0.18978277  0.00099638  0.65664637    -0.03900
C719        C  0.15006373  0.00623961  0.69681940    -0.09200
C720        C  0.09527603  0.01214406  0.68473790    -0.16900
H721        H  0.83661088  0.04247411  0.74268208     0.11300
H722        H  0.93026689  0.04849968  0.71740399     0.10500
H723        H  0.88963067  0.99712240  0.55810151     0.10500
H724        H  0.79749197  0.98035786  0.58481599     0.11000
H725        H  0.10250509  0.00836932  0.55079328     0.11100
H726        H  0.19902394  0.00949685  0.57105773     0.11000
H727        H  0.16135175  0.00408679  0.73842681     0.11200
H728        H  0.06634492  0.01546482  0.71672609     0.10000
C729        C  0.31922064  0.79627007  0.00509705    -0.03800
C730        C  0.27932553  0.83811332  0.01402049    -0.09600
C731        C  0.29146497  0.89281327  0.01352300    -0.17200
C732        C  0.34343502  0.90853947  0.00161326     0.24900
C733        C  0.38383069  0.86846335  0.99152423    -0.18900
C734        C  0.37204515  0.81322190  0.99304666    -0.07800
C735        C  0.35283420  0.96582475  0.99642418    -0.14300
C736        C  0.35306449  0.01470818  0.99307076    -0.14000
C737        C  0.34628321  0.07334028  0.99160865     0.24800
C738        C  0.29463372  0.09782323  0.99710840    -0.19400
C739        C  0.28756492  0.15434179  0.99861797    -0.07900
C740        C  0.33221053  0.18862494  0.99759502    -0.03900
C741        C  0.38361779  0.16297796  0.98731515    -0.09200
C742        C  0.39046094  0.10621528  0.98479727    -0.16900
H743        H  0.23711639  0.82911215  0.01746512     0.11300
H744        H  0.25916468  0.92307067  0.01977164     0.10500
H745        H  0.42391058  0.87979259  0.98020515     0.10500
H746        H  0.40366572  0.78471427  0.98035364     0.11000
H747        H  0.25948766  0.07314358  0.00017592     0.11100
H748        H  0.24662589  0.17117865  0.00070526     0.11000
H749        H  0.41881582  0.18622332  0.98010568     0.11200
H750        H  0.43031427  0.08796750  0.97753142     0.10000
C751        C  0.69492910  0.29323828  0.98578224    -0.03800
C752        C  0.70238757  0.34659796  0.00620238    -0.09600
C753        C  0.65763290  0.38091101  0.01515248    -0.17200
C754        C  0.60690641  0.36475184  0.99744234     0.24900
C755        C  0.60222112  0.31843750  0.96461321    -0.18900
C756        C  0.64678898  0.28323565  0.95750699    -0.07800
C757        C  0.55907597  0.38403306  0.02314918    -0.14300
C758        C  0.51427844  0.37532719  0.03682243    -0.14000
C759        C  0.46548928  0.34659608  0.03269168     0.24800
C760        C  0.45969119  0.29899326  0.05983139    -0.19400
C761        C  0.41551431  0.26677223  0.04791370    -0.07900
C762        C  0.37581619  0.28202352  0.00918340    -0.03900
C763        C  0.38377329  0.33013346  0.98204549    -0.09200
C764        C  0.42962252  0.35969587  0.99185077    -0.16900
H765        H  0.74125639  0.35847202  0.02246745     0.11300
H766        H  0.66210724  0.41673410  0.04003784     0.10500
H767        H  0.56272021  0.30616650  0.95019015     0.10500
H768        H  0.64180771  0.24553285  0.93534201     0.11000
H769        H  0.48962230  0.28632120  0.08935556     0.11100
H770        H  0.41079994  0.23087217  0.07044050     0.11000
H771        H  0.35521100  0.34555738  0.95271414     0.11200
H772        H  0.43882867  0.39151446  0.96598165     0.10000
C773        C  0.66132947  0.71550448  0.98621930    -0.03800
C774        C  0.61162534  0.73868410  0.96808753    -0.09600
C775        C  0.57088369  0.70573254  0.94813847    -0.17200
C776        C  0.57991624  0.64960707  0.94355233     0.24900
C777        C  0.63033235  0.62663664  0.95668179    -0.18900
C778        C  0.67037394  0.65900645  0.97865872    -0.07800
C779        C  0.53405689  0.61647554  0.93683344    -0.14300
C780        C  0.48819858  0.60672679  0.94655452    -0.14000
C781        C  0.43736478  0.62392136  0.96845452     0.24800
C782        C  0.38952143  0.61690752  0.93942469    -0.19400
C783        C  0.34430764  0.65038680  0.95055284    -0.07900
C784        C  0.34737882  0.69381994  0.98885758    -0.03900
C785        C  0.39383225  0.69494141  0.02238336    -0.09200
C786        C  0.43846490  0.66058461  0.01197421    -0.16900
H787        H  0.60426866  0.78191877  0.96754291     0.11300
H788        H  0.53179313  0.72396555  0.93731912     0.10500
H789        H  0.63831175  0.58370876  0.95105437     0.10500
H790        H  0.70943450  0.64020077  0.98853176     0.11000
H791        H  0.38814226  0.58838433  0.90591228     0.11100
H792        H  0.30807356  0.64373299  0.92678852     0.11000
H793        H  0.39690008  0.72473543  0.05476210     0.11200
H794        H  0.47552319  0.66602730  0.03507646     0.10000
C795        C  0.71808672  0.19045090  0.00235785    -0.03800
C796        C  0.66351369  0.17686207  0.01056987    -0.09600
C797        C  0.64985951  0.12329118  0.01804010    -0.17200
C798        C  0.69049083  0.08289073  0.02149597     0.24900
C799        C  0.74464528  0.09564848  0.01563172    -0.18900
C800        C  0.75828057  0.14867030  0.00672577    -0.07800
C801        C  0.67773839  0.02814122  0.03181170    -0.14300
C802        C  0.67570862  0.98003014  0.03641072    -0.14000
C803        C  0.68473020  0.92242420  0.03356703     0.24800
C804        C  0.73275956  0.90195228  0.01145109    -0.19400
C805        C  0.74130285  0.84650802  0.00403155    -0.07900
C806        C  0.70057188  0.80981683  0.01563717    -0.03900
C807        C  0.65490451  0.83078258  0.04353950    -0.09200
C808        C  0.64662584  0.88695063  0.05129541    -0.16900
H809        H  0.63122645  0.20703952  0.01499476     0.11300
H810        H  0.60785333  0.11394768  0.02383403     0.10500
H811        H  0.77658968  0.06466227  0.01881910     0.10500
H812        H  0.80077636  0.15756626  0.00371465     0.11000
H813        H  0.76364600  0.92892532  0.99944391     0.11100
H814        H  0.77964506  0.83229593  0.98747180     0.11000
H815        H  0.62529871  0.80401607  0.05823326     0.11200
H816        H  0.61104408  0.90299505  0.07145108     0.10000
C817        C  0.48870427  0.81589453  0.72374915    -0.03800
C818        C  0.47010011  0.86874822  0.71179485    -0.09600
C819        C  0.47350025  0.91043569  0.75011987    -0.17200
C820        C  0.49070794  0.89924114  0.80201679     0.24900
C821        C  0.49902950  0.84603542  0.81689909    -0.18900
C822        C  0.49787191  0.80453623  0.77803583    -0.07800
C823        C  0.50645919  0.94334868  0.83622227    -0.14300
C824        C  0.51962675  0.98902923  0.84434526    -0.14000
C825        C  0.52168750  0.04233047  0.82499264     0.24800
C826        C  0.56627217  0.05694157  0.79571181    -0.19400
C827        C  0.56069222  0.09862893  0.75951586    -0.07900
C828        C  0.51009845  0.12638892  0.75153475    -0.03900
C829        C  0.46578027  0.10942066  0.78129383    -0.09200
C830        C  0.47206430  0.06968554  0.81855281    -0.16900
H831        H  0.45430003  0.87891814  0.67308193     0.11300
H832        H  0.46450417  0.95172929  0.73876458     0.10500
H833        H  0.50909392  0.83699713  0.85778576     0.10500
H834        H  0.50652988  0.76340547  0.78983686     0.11000
H835        H  0.60425586  0.03369128  0.79803712     0.11100
H836        H  0.59554841  0.10736391  0.73626837     0.11000
H837        H  0.42465756  0.12413657  0.77467244     0.11200
H838        H  0.43641229  0.05638224  0.83835391     0.10000
C839        C  0.49587339  0.15419495  0.28680914    -0.03800
C840        C  0.48949378  0.09849948  0.29470959    -0.09600
C841        C  0.48611059  0.07937025  0.34620651    -0.17200
C842        C  0.48892501  0.11556982  0.39001061     0.24900
C843        C  0.48952904  0.17101267  0.38238933    -0.18900
C844        C  0.49180018  0.19019353  0.33140443    -0.07800
C845        C  0.49383942  0.09785448  0.44341334    -0.14300
C846        C  0.49982379  0.09767897  0.49084249    -0.14000
C847        C  0.50432315  0.11377613  0.54580060     0.24800
C848        C  0.50709758  0.16877567  0.55899318    -0.19400
C849        C  0.50580173  0.18643774  0.61193867    -0.07900
C850        C  0.50421102  0.14923396  0.65310207    -0.03900
C851        C  0.50222813  0.09359872  0.63920755    -0.09200
C852        C  0.50177951  0.07632412  0.58572203    -0.16900
H853        H  0.48604167  0.06966328  0.26174977     0.11300
H854        H  0.48183979  0.03652098  0.35167894     0.10500
H855        H  0.48996263  0.19954341  0.41607395     0.10500
H856        H  0.49314451  0.23348671  0.32662351     0.11000
H857        H  0.50871493  0.19825572  0.52820890     0.11100
H858        H  0.50652735  0.22951090  0.62110550     0.11000
H859        H  0.49957311  0.06340636  0.66902795     0.11200
H860        H  0.49871306  0.03386442  0.57535701     0.10000
C861        C  0.49437936  0.80577021  0.24719143    -0.03800
C862        C  0.50018470  0.85789645  0.27075769    -0.09600
C863        C  0.49795892  0.86551936  0.32599536    -0.17200
C864        C  0.49282774  0.82097438  0.35786211     0.24900
C865        C  0.49146544  0.76895026  0.33548099    -0.18900
C866        C  0.49247441  0.76133103  0.28093587    -0.07800
C867        C  0.49047817  0.82681475  0.41403221    -0.14300
C868        C  0.48914655  0.82143332  0.46094546    -0.14000
C869        C  0.49021185  0.80851869  0.51550946     0.24800
C870        C  0.47268424  0.75850197  0.53098565    -0.19400
C871        C  0.47596007  0.74541210  0.58440701    -0.07900
C872        C  0.49453712  0.78323360  0.62352200    -0.03900
C873        C  0.51506560  0.83178787  0.60590491    -0.09200
C874        C  0.51212237  0.84465432  0.55268192    -0.16900
H875        H  0.50856091  0.89246499  0.24771274     0.11300
H876        H  0.50140576  0.90577321  0.34381041     0.10500
H877        H  0.48932293  0.73416255  0.36030831     0.10500
H878        H  0.49093022  0.72036065  0.26440718     0.11000
H879        H  0.45703031  0.72952360  0.50181631     0.11100
H880        H  0.46302890  0.70596991  0.59528571     0.11000
H881        H  0.53316338  0.86035190  0.63330901     0.11200
H882        H  0.52735880  0.88265040  0.54052977     0.10000
C883        C  0.48745512  0.83835721  0.14765710    -0.03800
C884        C  0.50842012  0.83038920  0.09578332    -0.09600
C885        C  0.51033144  0.87347939  0.06122619    -0.17200
C886        C  0.48975742  0.92455568  0.07751488     0.24900
C887        C  0.46064348  0.93046295  0.12451714    -0.18900
C888        C  0.45885627  0.88784291  0.15887649    -0.07800
C889        C  0.50917952  0.97318235  0.05633559    -0.14300
C890        C  0.52444304  0.01837628  0.06449403    -0.14000
C891        C  0.53210902  0.06467133  0.09937779     0.24800
C892        C  0.55968410  0.05733653  0.14792212    -0.19400
C893        C  0.55211607  0.09478910  0.19026584    -0.07900
C894        C  0.51437749  0.13871537  0.18571421    -0.03900
C895        C  0.49275720  0.14882564  0.13432151    -0.09200
C896        C  0.50074430  0.11178457  0.09199334    -0.16900
H897        H  0.52629998  0.79153959  0.08322880     0.11300
H898        H  0.53134959  0.86787552  0.02389254     0.10500
H899        H  0.44300089  0.96954999  0.13692170     0.10500
H900        H  0.43650081  0.89515949  0.19501411     0.11000
H901        H  0.58464047  0.02107644  0.15405994     0.11100
H902        H  0.57423042  0.08828459  0.22719259     0.11000
H903        H  0.46846756  0.18495165  0.12687051     0.11200
H904        H  0.48014332  0.11867542  0.05445709     0.10000
C905        C  0.80289182  0.50122307  0.12329675    -0.03800
C906        C  0.81226498  0.46000480  0.08391335    -0.09600
C907        C  0.85835376  0.45928491  0.05243297    -0.17200
C908        C  0.89523954  0.50094603  0.05780504     0.24900
C909        C  0.88575965  0.54300647  0.09471840    -0.18900
C910        C  0.84031074  0.54342590  0.12656040    -0.07800
C911        C  0.92797981  0.51110973  0.01333243    -0.14300
C912        C  0.92429855  0.52272871  0.96764199    -0.14000
C913        C  0.88522489  0.52941789  0.92586232     0.24800
C914        C  0.83308306  0.54709219  0.94087078    -0.19400
C915        C  0.78994141  0.54304481  0.90523911    -0.07900
C916        C  0.79670556  0.51540874  0.85573020    -0.03900
C917        C  0.85049233  0.50302089  0.83927552    -0.09200
C918        C  0.89439314  0.50915490  0.87438529    -0.16900
H919        H  0.78348811  0.42842720  0.07711989     0.11300
H920        H  0.86304794  0.42837202  0.02109091     0.10500
H921        H  0.91114544  0.57786323  0.09603363     0.10500
H922        H  0.83477193  0.57856576  0.15194785     0.11000
H923        H  0.82569333  0.56427828  0.98042918     0.11100
H924        H  0.75123332  0.56131832  0.91673613     0.11000
H925        H  0.85834287  0.48781105  0.79933286     0.11200
H926        H  0.93470044  0.49664421  0.86187658     0.10000
C927        C  0.33187697  0.49173960  0.14747202    -0.03800
C928        C  0.38062588  0.48522286  0.17713467    -0.09600
C929        C  0.43088918  0.48972499  0.15360753    -0.17200
C930        C  0.43414551  0.50421283  0.10060107     0.24900
C931        C  0.38632662  0.51445878  0.07129535    -0.18900
C932        C  0.33559686  0.50729255  0.09400990    -0.07800
C933        C  0.48737858  0.50941031  0.07870781    -0.14300
C934        C  0.53617537  0.50774988  0.07469969    -0.14000
C935        C  0.59258610  0.49860105  0.08922826     0.24800
C936        C  0.60389384  0.47114665  0.13572933    -0.19400
C937        C  0.65633328  0.46802546  0.15674758    -0.07900
C938        C  0.70028620  0.49093744  0.13122003    -0.03900
C939        C  0.68864408  0.51677508  0.08257948    -0.09200
C940        C  0.63520219  0.52029916  0.06182691    -0.16900
H941        H  0.37971129  0.47691217  0.21909874     0.11300
H942        H  0.46744885  0.48325867  0.17741569     0.10500
H943        H  0.38803495  0.53050329  0.03203176     0.10500
H944        H  0.29958181  0.51701016  0.07058711     0.11000
H945        H  0.57136757  0.45434856  0.15763852     0.11100
H946        H  0.66096460  0.44975433  0.19482458     0.11000
H947        H  0.72004179  0.53692855  0.06217368     0.11200
H948        H  0.62662377  0.54205577  0.02620145     0.10000
C949        C  0.69377348  0.50292858  0.84045154    -0.03800
C950        C  0.68762531  0.48348868  0.89242892    -0.09600
C951        C  0.63614493  0.47782411  0.91363864    -0.17200
C952        C  0.58985064  0.48702053  0.88225627     0.24900
C953        C  0.59513914  0.50075598  0.82932691    -0.18900
C954        C  0.64629021  0.50716096  0.80837174    -0.07800
C955        C  0.53646045  0.47892021  0.90166338    -0.14300
C956        C  0.48808104  0.47531752  0.90431604    -0.14000
C957        C  0.43162961  0.47639207  0.88946575     0.24800
C958        C  0.39036770  0.47501474  0.92668011    -0.19400
C959        C  0.33588971  0.47882733  0.91040752    -0.07900
C960        C  0.32204897  0.48971156  0.85701652    -0.03900
C961        C  0.36446012  0.48669392  0.81979757    -0.09200
C962        C  0.41831036  0.48056602  0.83580568    -0.16900
H963        H  0.72207298  0.47134253  0.91684533     0.11300
H964        H  0.63246059  0.46547729  0.95408036     0.10500
H965        H  0.55959189  0.50547059  0.80372513     0.10500
H966        H  0.64846475  0.51443257  0.76635298     0.11000
H967        H  0.40017623  0.47063459  0.96813288     0.11100
H968        H  0.30573010  0.47279204  0.93990505     0.11000
H969        H  0.35598092  0.48994915  0.77766119     0.11200
H970        H  0.44972018  0.48035770  0.80619657     0.10000
C971        C  0.21832674  0.50670910  0.87563980    -0.03800
C972        C  0.22405825  0.53445913  0.92513833    -0.09600
C973        C  0.18145488  0.53641804  0.96074082    -0.17200
C974        C  0.13173743  0.51417146  0.94576407     0.24900
C975        C  0.12240501  0.49708975  0.89347707    -0.18900
C976        C  0.16490575  0.49484653  0.85823264    -0.07800
C977        C  0.09941507  0.49501483  0.98681070    -0.14300
C978        C  0.10064813  0.47600756  0.02979287    -0.14000
C979        C  0.13440616  0.46934373  0.07550816     0.24800
C980        C  0.13697425  0.51436405  0.10958327    -0.19400
C981        C  0.18434451  0.52445089  0.13778534    -0.07900
C982        C  0.22863749  0.48653753  0.13841513    -0.03900
C983        C  0.22486841  0.44018850  0.10427279    -0.09200
C984        C  0.17858140  0.43225440  0.07246615    -0.16900
H985        H  0.26147764  0.55328946  0.93693784     0.11300
H986        H  0.18851770  0.55177942  0.00106290     0.10500
H987        H  0.08363351  0.48263668  0.88042635     0.10500
H988        H  0.15635704  0.48131863  0.81764250     0.11000
H989        H  0.10502018  0.54564338  0.10895572     0.11100
H990        H  0.18606703  0.56397723  0.15610201     0.11000
H991        H  0.25860245  0.41114515  0.10095606     0.11200
H992        H  0.17893503  0.39966350  0.04259373     0.10000
C993        C  0.83972025  0.80905583  0.50512907    -0.03800
C994        C  0.84205407  0.85213479  0.54370018    -0.09600
C995        C  0.88815589  0.88240720  0.54982212    -0.17200
C996        C  0.92963566  0.87617886  0.51336839     0.24900
C997        C  0.92693326  0.83646887  0.47273932    -0.18900
C998        C  0.88332615  0.80243350  0.46940329    -0.07800
C999        C  0.98065450  0.89961239  0.52425462    -0.14300
C1000       C  0.02866680  0.89358419  0.52938058    -0.14000
C1001       C  0.07525691  0.85815407  0.52664761     0.24800
C1002       C  0.12509479  0.87615603  0.51121125    -0.19400
C1003       C  0.16690795  0.83851368  0.50017943    -0.07900
C1004       C  0.15873571  0.78210741  0.50178804    -0.03900
C1005       C  0.10921350  0.76524130  0.52114428    -0.09200
C1006       C  0.06762556  0.80289644  0.53251714    -0.16900
H1007       H  0.80968447  0.86121234  0.57137177     0.11300
H1008       H  0.89266231  0.90816434  0.58480245     0.10500
H1009       H  0.96035742  0.82937509  0.44567728     0.10500
H1010       H  0.88389288  0.77035511  0.43899963     0.11000
H1011       H  0.13137062  0.91880669  0.50662208     0.11100
H1012       H  0.20588934  0.85342384  0.48955138     0.11000
H1013       H  0.10244335  0.72349495  0.52879386     0.11200
H1014       H  0.02890562  0.78873755  0.54501225     0.10000
C1015       C  0.19782622  0.68240431  0.48006881    -0.03800
C1016       C  0.24108297  0.64466500  0.49016998    -0.09600
C1017       C  0.23305976  0.58916611  0.48924349    -0.17200
C1018       C  0.18202357  0.56945009  0.47669914     0.24900
C1019       C  0.14037961  0.60544057  0.46021489    -0.18900
C1020       C  0.14874869  0.66140223  0.45998131    -0.07800
C1021       C  0.17288709  0.51271146  0.48324466    -0.14300
C1022       C  0.17035124  0.46517180  0.49220320    -0.14000
C1023       C  0.17263442  0.40809521  0.50268130     0.24800
C1024       C  0.12532735  0.37902111  0.50563220    -0.19400
C1025       C  0.12819609  0.32252684  0.50949237    -0.07900
C1026       C  0.17893606  0.29389094  0.50862448    -0.03900
C1027       C  0.22578774  0.32515826  0.51340839    -0.09200
C1028       C  0.22277438  0.38130696  0.50960068    -0.16900
H1029       H  0.28076537  0.65857471  0.50211591     0.11300
H1030       H  0.26626364  0.56181804  0.50052778     0.10500
H1031       H  0.10132218  0.59034317  0.44823249     0.10500
H1032       H  0.11631411  0.68788287  0.44560679     0.11000
H1033       H  0.08633484  0.40028741  0.50521603     0.11100
H1034       H  0.09055030  0.30240531  0.51368960     0.11000
H1035       H  0.26540966  0.30564982  0.51859267     0.11200
H1036       H  0.25980775  0.40361641  0.51062881     0.10000
C1037       C  0.78401059  0.32927135  0.49979854    -0.03800
C1038       C  0.83943643  0.34127406  0.49499159    -0.09600
C1039       C  0.85600584  0.39471340  0.49682048    -0.17200
C1040       C  0.81743901  0.43717106  0.50004681     0.24900
C1041       C  0.76230642  0.42633089  0.49981563    -0.18900
C1042       C  0.74577182  0.37307929  0.49903849    -0.07800
C1043       C  0.83323884  0.49228125  0.50167656    -0.14300
C1044       C  0.83661448  0.54054105  0.50159126    -0.14000
C1045       C  0.82772090  0.59780590  0.49891363     0.24800
C1046       C  0.77579621  0.61770869  0.48672283    -0.19400
C1047       C  0.76481937  0.67312704  0.48727571    -0.07900
C1048       C  0.80649051  0.71070377  0.49474461    -0.03900
C1049       C  0.85875707  0.68938155  0.50873639    -0.09200
C1050       C  0.86842801  0.63351956  0.51246140    -0.16900
H1051       H  0.87045209  0.31015879  0.48834926     0.11300
H1052       H  0.89876280  0.40280508  0.49482381     0.10500
H1053       H  0.73198374  0.45912131  0.50073061     0.10500
H1054       H  0.70275986  0.36576443  0.49968446     0.11000
H1055       H  0.74288852  0.59029288  0.47984950     0.11100
H1056       H  0.72269519  0.68621446  0.48477573     0.11000
H1057       H  0.89111962  0.71528776  0.52151402     0.11200
H1058       H  0.90675244  0.61806459  0.52821154     0.10000
C1059       C  0.80474280  0.22619727  0.51497891    -0.03800
C1060       C  0.79670059  0.17281070  0.49482349    -0.09600
C1061       C  0.83977368  0.13530739  0.49249185    -0.17200
C1062       C  0.88995959  0.14918186  0.51365614     0.24900
C1063       C  0.89542945  0.19826115  0.54183112    -0.18900
C1064       C  0.85163111  0.23493820  0.54583293    -0.07800
C1065       C  0.93845575  0.11982450  0.49966631    -0.14300
C1066       C  0.98589306  0.11824468  0.49068355    -0.14000
C1067       C  0.03842648  0.14001180  0.48811368     0.24800
C1068       C  0.04578411  0.18409939  0.45635338    -0.19400
C1069       C  0.09255087  0.21375212  0.46232953    -0.07900
C1070       C  0.13344843  0.20009518  0.50044721    -0.03900
C1071       C  0.12589111  0.15321932  0.52996885    -0.09200
C1072       C  0.07785589  0.12550819  0.52544156    -0.16900
H1073       H  0.75849571  0.16158157  0.47648639     0.11300
H1074       H  0.83446597  0.09771212  0.47108998     0.10500
H1075       H  0.93440339  0.20891066  0.55876145     0.10500
H1076       H  0.85622046  0.27222814  0.56853472     0.11000
H1077       H  0.01433458  0.19702087  0.42843937     0.11100
H1078       H  0.09670620  0.24763026  0.43676956     0.11000
H1079       H  0.15619821  0.13816257  0.55785905     0.11200
H1080       H  0.07005127  0.09445832  0.55279066     0.10000
loop_ 
_geom_bond_atom_site_label_1 
_geom_bond_atom_site_label_2 
_geom_bond_distance 
_geom_bond_site_symmetry_2 
_ccdc_geom_bond_type 
Zr1           O2   2.439       .  S
Zr1           O3   2.559       .  S
Zr1           O4   2.547       .  S
Zr1           O7   2.529       .  S
Zr1           O9   2.393       .  S
Zr1          O10   2.408       .  S
Zr1          O11   2.426       .  S
Zr1          O12   2.413       .  S
O2           H58   0.985       .  S
O2           H66   0.989       .  S
O3           C23   1.296       .  A
O4           C25   1.315       .  A
O5          Zr15   2.492       .  S
O5           C24   1.294       .  A
O6          Zr14   2.551       .  S
O6           C25   1.301       .  A
O7           C24   1.314       .  A
O8          Zr16   2.345       .  S
O8           C23   1.271       .  A
O9          Zr14   2.430       .  S
O9          Zr16   2.384       .  S
O10         Zr15   2.435       .  S
O10         Zr16   2.375       .  S
O10          H45   0.965       .  S
O11         Zr14   2.417       .  S
O11         Zr31   2.360       .  S
O11          H48   0.961       .  S
O12         Zr15   2.394       .  S
O12         Zr31   2.368       .  S
Zr13         O38   2.415       .  S
Zr13         O32   2.562       .  S
Zr13         O40   2.573       .  S
Zr13         O28   2.554       .  S
Zr13         O19   2.412       .  S
Zr13         O20   2.423       .  S
Zr13         O21   2.394       .  S
Zr13         O22   2.394       .  S
Zr14         O33   2.435       .  S
Zr14         O26   2.435       .  S
Zr14         O27   2.525       .  S
Zr14         O20   2.429       .  S
Zr14         O21   2.420       .  S
Zr15         O17   2.438       .  S
Zr15         O39   2.443       .  S
Zr15         O41   2.497       .  S
Zr15         O19   2.431       .  S
Zr15         O22   2.414       .  S
Zr16         O42   2.423       .  S
Zr16         O43   2.441       .  S
Zr16         O18   2.440       .  S
Zr16         O19   2.400       .  S
Zr16         O20   2.339       .  S
O17          H54   0.990       .  S
O18          H49   0.988       .  S
O18          H63   0.992       .  S
O20          H46   0.961       .  S
O21         Zr31   2.383       .  S
O22         Zr31   2.368       .  S
O22          H47   0.965       .  S
C23         C343   1.574   1_556  S
C24          C73   1.612       .  S
C25         C483   1.613   1_655  S
O26          H62   0.990       .  S
O27          C29   1.303       .  A
O28          C29   1.318       .  A
C29         C413   1.609   1_565  S
O30         Zr31   2.436       .  S
O30          H59   0.989       .  S
Zr31         O34   2.436       .  S
Zr31         O35   2.437       .  S
Zr31         O36   2.366       .  S
O32          C37   1.298       .  A
O33          H50   0.990       .  S
O33          H65   0.990       .  S
O34          H51   0.989       .  S
O35          H55   0.989       .  S
O35          H64   0.990       .  S
O36          C37   1.278       .  A
C37          C69   1.576       .  S
O38          H57   0.985       .  S
O38          H61   0.989       .  S
O39          H53   0.989       .  S
O39          H60   0.988       .  S
O40          C44   1.323       .  A
O41          C44   1.290       .  A
O42          H52   0.986       .  S
O43          H56   0.990       .  S
C44          C77   1.605       .  S
C67         C254   1.609       .  S
C67         C300   1.603       .  S
C67        C1037   1.562       .  S
C67        C1059   1.538       .  S
C68         C102   1.618       .  S
C68         C509   1.611       .  S
C68        C1026   1.555       .  S
C68        C1070   1.560       .  S
C69         C453   1.573       .  S
C69         C993   1.558       .  S
C69        C1048   1.558       .  S
C70         C181   1.550       .  S
C70         C369   1.574       .  S
C70        C1004   1.532       .  S
C70        C1015   1.565       .  S
C71         C115   1.604       .  S
C71         C375   1.628       .  S
C71         C960   1.540       .  S
C71         C971   1.538       .  S
C72         C169   1.602       .  S
C72         C530   1.596       .  S
C72         C927   1.551       .  S
C72         C982   1.551       .  S
C73         C320   1.600       .  S
C73         C916   1.545       .  S
C73         C949   1.555       .  S
C74         C233   1.604       .  S
C74         C440   1.607       .  S
C74         C905   1.557       .  S
C74         C938   1.555       .  S
C75         C168   1.619       .  S
C75         C441   1.628       .  S
C75         C861   1.536       .  S
C75         C883   1.553       .  S
C76         C239   1.598       .  S
C76         C515   1.608       .  S
C76         C839   1.542       .  S
C76         C894   1.546       .  S
C77         C371   1.607       .  S
C77         C817   1.541       .  S
C77         C872   1.545       .  S
C78         C103   1.593       .  S
C78         C299   1.592       .  S
C78         C828   1.559       .  S
C78         C850   1.533       .  S
Zr79         O80   2.445       .  S
Zr79         O81   2.559       .  S
Zr79         O82   2.562       .  S
Zr79         O85   2.584       .  S
Zr79         O87   2.403       .  S
Zr79         O88   2.406       .  S
Zr79         O89   2.444       .  S
Zr79         O90   2.432       .  S
O80         H136   0.990       .  S
O80         H144   0.990       .  S
O81         C101   1.317       .  A
O82         C103   1.316       .  A
O83         Zr93   2.473       .  S
O83         C102   1.299       .  A
O84         Zr92   2.476       .  S
O84         C103   1.291       .  A
O85         C102   1.308       .  A
O86         Zr94   2.434       .  S
O86         C101   1.277       .  A
O87         Zr92   2.428       .  S
O87         Zr94   2.405       .  S
O88         Zr93   2.401       .  S
O88         Zr94   2.387       .  S
O88         H123   0.966       .  S
O89         Zr92   2.416       .  S
O89        Zr109   2.408       .  S
O89         H126   0.963       .  S
O90         Zr93   2.399       .  S
O90        Zr109   2.411       .  S
Zr91        O116   2.440       .  S
Zr91        O110   2.587       .  S
Zr91        O118   2.577       .  S
Zr91        O106   2.615       .  S
Zr91         O97   2.439       .  S
Zr91         O98   2.434       .  S
Zr91         O99   2.392       .  S
Zr91        O100   2.406       .  S
Zr92        O111   2.443       .  S
Zr92        O104   2.432       .  S
Zr92        O105   2.475       .  S
Zr92         O98   2.411       .  S
Zr92         O99   2.402       .  S
Zr93         O95   2.433       .  S
Zr93        O117   2.440       .  S
Zr93        O119   2.488       .  S
Zr93         O97   2.408       .  S
Zr93        O100   2.422       .  S
Zr94        O120   2.442       .  S
Zr94        O121   2.438       .  S
Zr94         O96   2.437       .  S
Zr94         O97   2.412       .  S
Zr94         O98   2.377       .  S
O95         H132   0.990       .  S
O96         H127   0.989       .  S
O96         H141   0.990       .  S
O98         H124   0.960       .  S
O99        Zr109   2.399       .  S
O100       Zr109   2.392       .  S
O100        H125   0.965       .  S
C101        C414   1.590   1_545  S
O104        H140   0.989       .  S
O105        C107   1.300       .  A
O106        C107   1.315       .  A
C107        C346   1.616   1_556  S
O108       Zr109   2.437       .  S
O108        H137   0.990       .  S
Zr109       O112   2.440       .  S
Zr109       O113   2.441       .  S
Zr109       O114   2.441       .  S
O110        C115   1.326       .  A
O111        H128   0.990       .  S
O111        H143   0.990       .  S
O112        H129   0.989       .  S
O113        H133   0.990       .  S
O113        H142   0.990       .  S
O114        C115   1.278       .  A
O116        H135   0.990       .  S
O116        H139   0.991       .  S
O117        H131   0.989       .  S
O117        H138   0.990       .  S
O118        C122   1.321       .  A
O119        C122   1.293       .  A
O120        H130   0.990       .  S
O121        H134   0.989       .  S
C122        C485   1.616       .  S
Zr145       O146   2.439       .  S
Zr145       O147   2.493       .  S
Zr145       O148   2.509       .  S
Zr145       O151   2.559       .  S
Zr145       O153   2.406       .  S
Zr145       O154   2.410       .  S
Zr145       O155   2.428       .  S
Zr145       O156   2.423       .  S
O146        H202   0.989       .  S
O146        H210   0.989       .  S
O147        C167   1.299       .  A
O148        C169   1.306       .  A
O149       Zr159   2.483       .  S
O149        C168   1.302       .  A
O150       Zr158   2.524       .  S
O150        C169   1.301       .  A
O151        C168   1.297       .  A
O152       Zr160   2.440       .  S
O152        C167   1.279       .  A
O153       Zr158   2.428       .  S
O153       Zr160   2.393       .  S
O154       Zr159   2.396       .  S
O154       Zr160   2.382       .  S
O154        H189   0.965       .  S
O155       Zr158   2.422       .  S
O155       Zr175   2.387       .  S
O155        H192   0.963       .  S
O156       Zr159   2.409       .  S
O156       Zr175   2.398       .  S
Zr157       O182   2.440       .  S
Zr157       O176   2.520       .  S
Zr157       O184   2.541       .  S
Zr157       O172   2.556       .  S
Zr157       O163   2.434       .  S
Zr157       O164   2.438       .  S
Zr157       O165   2.397       .  S
Zr157       O166   2.393       .  S
Zr158       O177   2.432       .  S
Zr158       O170   2.432       .  S
Zr158       O171   2.525       .  S
Zr158       O164   2.414       .  S
Zr158       O165   2.397       .  S
Zr159       O161   2.428       .  S
Zr159       O183   2.440       .  S
Zr159       O185   2.502       .  S
Zr159       O163   2.413       .  S
Zr159       O166   2.419       .  S
Zr160       O186   2.430       .  S
Zr160       O187   2.434       .  S
Zr160       O162   2.438       .  S
Zr160       O163   2.421       .  S
Zr160       O164   2.397       .  S
O161        H198   0.990       .  S
O162        H193   0.988       .  S
O162        H207   0.990       .  S
O164        H190   0.963       .  S
O165       Zr175   2.401       .  S
O166       Zr175   2.391       .  S
O166        H191   0.962       .  S
C167        C345   1.562   1_554  S
O170        H206   0.990       .  S
O171        C173   1.311       .  A
O172        C173   1.300       .  A
C173        C484   1.626   1_455  S
O174       Zr175   2.433       .  S
O174        H203   0.990       .  S
Zr175       O178   2.441       .  S
Zr175       O179   2.439       .  S
Zr175       O180   2.408       .  S
O176        C181   1.308       .  A
O177        H194   0.989       .  S
O177        H209   0.988       .  S
O178        H195   0.989       .  S
O179        H199   0.990       .  S
O179        H208   0.990       .  S
O180        C181   1.272       .  A
O182        H201   0.990       .  S
O182        H205   0.991       .  S
O183        H197   0.990       .  S
O183        H204   0.990       .  S
O184        C188   1.312       .  A
O185        C188   1.295       .  A
O186        H196   0.990       .  S
O187        H200   0.988       .  S
C188        C416   1.613   1_565  S
Zr211       O212   2.436       .  S
Zr211       O213   2.551       .  S
Zr211       O214   2.577       .  S
Zr211       O217   2.563       .  S
Zr211       O219   2.406       .  S
Zr211       O220   2.397       .  S
Zr211       O221   2.433       .  S
Zr211       O222   2.423       .  S
O212        H268   0.990       .  S
O212        H276   0.990       .  S
O213        C233   1.311       .  A
O214        C235   1.304       .  A
O215       Zr225   2.452       .  S
O215        C234   1.284       .  A
O216       Zr224   2.463       .  S
O216        C235   1.301       .  A
O217        C234   1.321       .  A
O218       Zr226   2.456       .  S
O218        C233   1.278       .  A
O219       Zr224   2.405       .  S
O219       Zr226   2.393       .  S
O220       Zr225   2.425       .  S
O220       Zr226   2.390       .  S
O220        H255   0.966       .  S
O221       Zr224   2.411       .  S
O221       Zr241   2.389       .  S
O221        H258   0.959       .  S
O222       Zr225   2.399       .  S
O222       Zr241   2.402       .  S
Zr223       O248   2.431       .  S
Zr223       O242   2.598       .  S
Zr223       O250   2.591       .  S
Zr223       O238   2.569       .  S
Zr223       O229   2.431       .  S
Zr223       O230   2.450       .  S
Zr223       O231   2.385       .  S
Zr223       O232   2.410       .  S
Zr224       O243   2.426       .  S
Zr224       O236   2.436       .  S
Zr224       O237   2.463       .  S
Zr224       O230   2.413       .  S
Zr224       O231   2.421       .  S
Zr225       O227   2.436       .  S
Zr225       O249   2.426       .  S
Zr225       O251   2.443       .  S
Zr225       O229   2.385       .  S
Zr225       O232   2.417       .  S
Zr226       O252   2.444       .  S
Zr226       O253   2.429       .  S
Zr226       O228   2.450       .  S
Zr226       O229   2.401       .  S
Zr226       O230   2.426       .  S
O227        H264   0.991       .  S
O228        H259   0.990       .  S
O228        H273   0.991       .  S
O230        H256   0.961       .  S
O231       Zr241   2.388       .  S
O232       Zr241   2.386       .  S
O232        H257   0.966       .  S
C234        C486   1.596   1_655  S
C235        C344   1.605   1_554  S
O236        H272   0.990       .  S
O237        C239   1.286       .  A
O238        C239   1.321       .  A
O240       Zr241   2.440       .  S
O240        H269   0.991       .  S
Zr241       O244   2.440       .  S
Zr241       O245   2.452       .  S
Zr241       O246   2.441       .  S
O242        C247   1.322       .  A
O243        H260   0.988       .  S
O243        H275   0.989       .  S
O244        H261   0.990       .  S
O245        H265   0.990       .  S
O245        H274   0.990       .  S
O246        C247   1.278       .  A
C247        C415   1.610   1_545  S
O248        H267   0.990       .  S
O248        H271   0.990       .  S
O249        H263   0.989       .  S
O249        H270   0.988       .  S
O250        C254   1.308       .  A
O251        C254   1.294       .  A
O252        H262   0.990       .  S
O253        H266   0.991       .  S
Zr277       O278   2.438       .  S
Zr277       O279   2.529       .  S
Zr277       O280   2.472       .  S
Zr277       O283   2.507       .  S
Zr277       O285   2.382       .  S
Zr277       O286   2.389       .  S
Zr277       O287   2.446       .  S
Zr277       O288   2.440       .  S
O278        H334   0.990       .  S
O278        H342   0.989       .  S
O279        C299   1.308       .  A
O280        C301   1.302       .  A
O281       Zr291   2.510       .  S
O281        C300   1.310       .  A
O282       Zr290   2.569       .  S
O282        C301   1.306       .  A
O283        C300   1.293       .  A
O284       Zr292   2.459       .  S
O284        C299   1.279       .  A
O285       Zr290   2.428       .  S
O285       Zr292   2.394       .  S
O286       Zr291   2.414       .  S
O286       Zr292   2.375       .  S
O286        H321   0.966       .  S
O287       Zr290   2.413       .  S
O287       Zr307   2.382       .  S
O287        H324   0.961       .  S
O288       Zr291   2.410       .  S
O288       Zr307   2.425       .  S
Zr289       O314   2.444       .  S
Zr289       O308   2.590       .  S
Zr289       O316   2.489       .  S
Zr289       O304   2.513       .  S
Zr289       O295   2.448       .  S
Zr289       O296   2.451       .  S
Zr289       O297   2.378       .  S
Zr289       O298   2.377       .  S
Zr290       O309   2.437       .  S
Zr290       O302   2.435       .  S
Zr290       O303   2.532       .  S
Zr290       O296   2.413       .  S
Zr290       O297   2.424       .  S
Zr291       O293   2.437       .  S
Zr291       O315   2.437       .  S
Zr291       O317   2.545       .  S
Zr291       O295   2.399       .  S
Zr291       O298   2.428       .  S
Zr292       O318   2.444       .  S
Zr292       O319   2.430       .  S
Zr292       O294   2.427       .  S
Zr292       O295   2.421       .  S
Zr292       O296   2.419       .  S
O293        H330   0.990       .  S
O294        H325   0.990       .  S
O294        H339   0.991       .  S
O296        H322   0.967       .  S
O297       Zr307   2.383       .  S
O298       Zr307   2.392       .  S
O298        H323   0.964       .  S
C301        C413   1.612       .  S
O302        H338   0.990       .  S
O303        C305   1.313       .  A
O304        C305   1.298       .  A
C305        C344   1.604       .  S
O306       Zr307   2.428       .  S
O306        H335   0.990       .  S
Zr307       O310   2.439       .  S
Zr307       O311   2.437       .  S
Zr307       O312   2.431       .  S
O308        C313   1.323       .  A
O309        H326   0.989       .  S
O309        H341   0.990       .  S
O310        H327   0.990       .  S
O311        H331   0.989       .  S
O311        H340   0.986       .  S
O312        C313   1.275       .  A
C313        C485   1.601   1_655  S
O314        H333   0.987       .  S
O314        H337   0.991       .  S
O315        H329   0.990       .  S
O315        H336   0.990       .  S
O316        C320   1.302       .  A
O317        C320   1.300       .  A
O318        H328   0.989       .  S
O319        H332   0.990       .  S
C343        C439   1.548       .  S
C343        C773   1.530   1_554  S
C343        C806   1.558       .  S
C344        C751   1.535       .  S
C344        C795   1.560   1_556  S
C345        C383   1.573       .  S
C345        C729   1.581   1_556  S
C345        C784   1.554       .  S
C346        C523   1.611       .  S
C346        C740   1.569   1_554  S
C346        C762   1.553       .  S
Zr347       O348   2.436       .  S
Zr347       O349   2.558       .  S
Zr347       O350   2.492       .  S
Zr347       O353   2.495       .  S
Zr347       O355   2.394       .  S
Zr347       O356   2.404       .  S
Zr347       O357   2.433       .  S
Zr347       O358   2.406       .  S
O348        H404   0.990       .  S
O348        H412   0.989       .  S
O349        C369   1.300       .  A
O350        C371   1.304       .  A
O351       Zr361   2.524       .  S
O351        C370   1.305       .  A
O352       Zr360   2.574       .  S
O352        C371   1.306       .  A
O353        C370   1.303       .  A
O354       Zr362   2.367       .  S
O354        C369   1.277       .  A
O355       Zr360   2.428       .  S
O355       Zr362   2.396       .  S
O356       Zr361   2.422       .  S
O356       Zr362   2.383       .  S
O356        H391   0.966       .  S
O357       Zr360   2.417       .  S
O357       Zr377   2.373       .  S
O357        H394   0.961       .  S
O358       Zr361   2.377       .  S
O358       Zr377   2.360       .  S
Zr359       O384   2.422       .  S
Zr359       O378   2.560       .  S
Zr359       O386   2.557       .  S
Zr359       O374   2.517       .  S
Zr359       O365   2.412       .  S
Zr359       O366   2.425       .  S
Zr359       O367   2.399       .  S
Zr359       O368   2.397       .  S
Zr360       O379   2.435       .  S
Zr360       O372   2.435       .  S
Zr360       O373   2.565       .  S
Zr360       O366   2.408       .  S
Zr360       O367   2.420       .  S
Zr361       O363   2.438       .  S
Zr361       O385   2.440       .  S
Zr361       O387   2.512       .  S
Zr361       O365   2.421       .  S
Zr361       O368   2.421       .  S
Zr362       O388   2.432       .  S
Zr362       O389   2.436       .  S
Zr362       O364   2.448       .  S
Zr362       O365   2.390       .  S
Zr362       O366   2.348       .  S
O363        H400   0.990       .  S
O364        H395   0.990       .  S
O364        H409   0.989       .  S
O366        H392   0.960       .  S
O367       Zr377   2.389       .  S
O368       Zr377   2.376       .  S
O368        H393   0.965       .  S
C370        C414   1.606       .  S
O372        H408   0.990       .  S
O373        C375   1.312       .  A
O374        C375   1.307       .  A
O376       Zr377   2.444       .  S
O376        H405   0.990       .  S
Zr377       O380   2.434       .  S
Zr377       O381   2.446       .  S
Zr377       O382   2.359       .  S
O378        C383   1.301       .  A
O379        H396   0.990       .  S
O379        H411   0.990       .  S
O380        H397   0.990       .  S
O381        H401   0.989       .  S
O381        H410   0.988       .  S
O382        C383   1.275       .  A
O384        H403   0.986       .  S
O384        H407   0.989       .  S
O385        H399   0.991       .  S
O385        H406   0.990       .  S
O386        C390   1.320       .  A
O387        C390   1.293       .  A
O388        H398   0.990       .  S
O389        H402   0.990       .  S
C390        C483   1.612       .  S
C413        C696   1.551       .  S
C413        C707   1.551       .  S
C414        C663   1.542       .  S
C414        C718   1.546   1_565  S
C415        C445   1.600       .  S
C415        C641   1.544   1_565  S
C415        C685   1.540       .  S
C416        C511   1.599       .  S
C416        C652   1.543       .  S
C416        C674   1.562       .  S
Zr417       O418   2.446       .  S
Zr417       O419   2.533       .  S
Zr417       O420   2.593       .  S
Zr417       O423   2.553       .  S
Zr417       O425   2.400       .  S
Zr417       O426   2.407       .  S
Zr417       O427   2.440       .  S
Zr417       O428   2.449       .  S
O418        H474   0.983       .  S
O418        H482   0.991       .  S
O419        C439   1.311       .  A
O420        C441   1.308       .  A
O421       Zr431   2.487       .  S
O421        C440   1.290       .  A
O422       Zr430   2.504       .  S
O422        C441   1.308       .  A
O423        C440   1.312       .  A
O424       Zr432   2.409       .  S
O424        C439   1.274       .  A
O425       Zr430   2.410       .  S
O425       Zr432   2.406       .  S
O426       Zr431   2.425       .  S
O426       Zr432   2.390       .  S
O426        H461   0.963       .  S
O427       Zr430   2.396       .  S
O427       Zr447   2.391       .  S
O427        H464   0.962       .  S
O428       Zr431   2.410       .  S
O428       Zr447   2.423       .  S
Zr429       O454   2.437       .  S
Zr429       O448   2.486       .  S
Zr429       O456   2.597       .  S
Zr429       O444   2.529       .  S
Zr429       O435   2.415       .  S
Zr429       O436   2.422       .  S
Zr429       O437   2.393       .  S
Zr429       O438   2.419       .  S
Zr430       O449   2.431       .  S
Zr430       O442   2.430       .  S
Zr430       O443   2.486       .  S
Zr430       O436   2.420       .  S
Zr430       O437   2.403       .  S
Zr431       O433   2.436       .  S
Zr431       O455   2.439       .  S
Zr431       O457   2.485       .  S
Zr431       O435   2.402       .  S
Zr431       O438   2.394       .  S
Zr432       O458   2.436       .  S
Zr432       O459   2.437       .  S
Zr432       O434   2.436       .  S
Zr432       O435   2.380       .  S
Zr432       O436   2.402       .  S
O433        H470   0.990       .  S
O434        H465   0.989       .  S
O434        H479   0.990       .  S
O436        H462   0.965       .  S
O437       Zr447   2.385       .  S
O438       Zr447   2.393       .  S
O438        H463   0.965       .  S
O442        H478   0.990       .  S
O443        C445   1.290       .  A
O444        C445   1.312       .  A
O446       Zr447   2.435       .  S
O446        H475   0.990       .  S
Zr447       O450   2.436       .  S
Zr447       O451   2.444       .  S
Zr447       O452   2.454       .  S
O448        C453   1.300       .  A
O449        H466   0.989       .  S
O449        H481   0.990       .  S
O450        H467   0.991       .  S
O451        H471   0.990       .  S
O451        H480   0.990       .  S
O452        C453   1.283       .  A
O454        H473   0.990       .  S
O454        H477   0.988       .  S
O455        H469   0.990       .  S
O455        H476   0.987       .  S
O456        C460   1.309       .  A
O457        C460   1.304       .  A
O458        H468   0.990       .  S
O459        H472   0.990       .  S
C460        C484   1.635       .  S
C483        C597   1.540   1_455  S
C483        C619   1.530       .  S
C484        C575   1.546   1_655  S
C484        C630   1.527       .  S
C485        C553   1.521       .  S
C485        C608   1.559   1_455  S
C486        C510   1.612       .  S
C486        C564   1.540       .  S
C486        C586   1.547   1_455  S
Zr487       O488   2.439       .  S
Zr487       O489   2.568       .  S
Zr487       O490   2.539       .  S
Zr487       O493   2.592       .  S
Zr487       O495   2.390       .  S
Zr487       O496   2.412       .  S
Zr487       O497   2.441       .  S
Zr487       O498   2.429       .  S
O488        H544   0.990       .  S
O488        H552   0.988       .  S
O489        C509   1.318       .  A
O490        C511   1.313       .  A
O491       Zr501   2.458       .  S
O491        C510   1.296       .  A
O492       Zr500   2.485       .  S
O492        C511   1.291       .  A
O493        C510   1.309       .  A
O494       Zr502   2.460       .  S
O494        C509   1.282       .  A
O495       Zr500   2.418       .  S
O495       Zr502   2.391       .  S
O496       Zr501   2.408       .  S
O496       Zr502   2.394       .  S
O496        H531   0.966       .  S
O497       Zr500   2.411       .  S
O497       Zr517   2.423       .  S
O497        H534   0.966       .  S
O498       Zr501   2.401       .  S
O498       Zr517   2.406       .  S
Zr499       O524   2.439       .  S
Zr499       O518   2.561       .  S
Zr499       O526   2.535       .  S
Zr499       O514   2.584       .  S
Zr499       O505   2.448       .  S
Zr499       O506   2.438       .  S
Zr499       O507   2.404       .  S
Zr499       O508   2.389       .  S
Zr500       O519   2.438       .  S
Zr500       O512   2.432       .  S
Zr500       O513   2.486       .  S
Zr500       O506   2.402       .  S
Zr500       O507   2.411       .  S
Zr501       O503   2.433       .  S
Zr501       O525   2.440       .  S
Zr501       O527   2.476       .  S
Zr501       O505   2.398       .  S
Zr501       O508   2.409       .  S
Zr502       O528   2.434       .  S
Zr502       O529   2.443       .  S
Zr502       O504   2.433       .  S
Zr502       O505   2.428       .  S
Zr502       O506   2.373       .  S
O503        H540   0.990       .  S
O504        H535   0.989       .  S
O504        H549   0.991       .  S
O506        H532   0.959       .  S
O507       Zr517   2.402       .  S
O508       Zr517   2.388       .  S
O508        H533   0.963       .  S
O512        H548   0.990       .  S
O513        C515   1.303       .  A
O514        C515   1.308       .  A
O516       Zr517   2.433       .  S
O516        H545   0.989       .  S
Zr517       O520   2.436       .  S
Zr517       O521   2.442       .  S
Zr517       O522   2.457       .  S
O518        C523   1.318       .  A
O519        H536   0.990       .  S
O519        H551   0.990       .  S
O520        H537   0.989       .  S
O521        H541   0.988       .  S
O521        H550   0.990       .  S
O522        C523   1.281       .  A
O524        H543   0.990       .  S
O524        H547   0.988       .  S
O525        H539   0.990       .  S
O525        H546   0.989       .  S
O526        C530   1.311       .  A
O527        C530   1.290       .  A
O528        H538   0.989       .  S
O529        H542   0.990       .  S
C553        C554   1.409       .  A
C553        C558   1.408       .  A
C554        C555   1.387       .  A
C554        H567   1.083       .  S
C555        C556   1.394       .  A
C555        H568   1.084   1_455  S
C556        C557   1.390       .  A
C556        C559   1.419   1_556  S
C557        C558   1.390       .  A
C557        H569   1.079       .  S
C558        H570   1.080       .  S
C559        C560   1.194       .  T
C560        C561   1.417       .  S
C561        C562   1.395       .  A
C561        C566   1.392       .  A
C562        C563   1.397       .  A
C562        H571   1.084       .  S
C563        C564   1.418       .  A
C563        H572   1.079       .  S
C564        C565   1.407       .  A
C565        C566   1.381       .  A
C565        H573   1.083       .  S
C566        H574   1.084       .  S
C575        C576   1.413   1_455  A
C575        C580   1.414       .  A
C576        C577   1.396       .  A
C576        H589   1.083       .  S
C577        C578   1.393       .  A
C577        H590   1.071       .  S
C578        C579   1.395   1_655  A
C578        C581   1.433       .  S
C579        C580   1.388       .  A
C579        H591   1.085       .  S
C580        H592   1.076       .  S
C581        C582   1.201       .  T
C582        C583   1.433       .  S
C583        C584   1.394   1_655  A
C583        C588   1.397       .  A
C584        C585   1.397       .  A
C584        H593   1.078       .  S
C585        C586   1.416   1_455  A
C585        H594   1.081       .  S
C586        C587   1.415       .  A
C587        C588   1.393       .  A
C587        H595   1.082       .  S
C588        H596   1.084       .  S
C597        C598   1.416   1_655  A
C597        C602   1.413       .  A
C598        C599   1.395   1_455  A
C598        H611   1.083       .  S
C599        C600   1.391       .  A
C599        H612   1.082   1_655  S
C600        C601   1.397       .  A
C600        C603   1.426       .  S
C601        C602   1.386       .  A
C601        H613   1.085       .  S
C602        H614   1.079       .  S
C603        C604   1.197       .  T
C604        C605   1.425       .  S
C605        C606   1.392   1_655  A
C605        C610   1.393       .  A
C606        C607   1.394       .  A
C606        H615   1.084       .  S
C607        C608   1.417   1_455  A
C607        H616   1.072       .  S
C608        C609   1.417       .  A
C609        C610   1.390       .  A
C609        H617   1.078       .  S
C610        H618   1.083       .  S
C619        C620   1.412   1_455  A
C619        C624   1.409       .  A
C620        C621   1.391       .  A
C620        H633   1.083       .  S
C621        C622   1.396   1_655  A
C621        H634   1.084       .  S
C622        C623   1.381       .  A
C622        C625   1.404   1_556  S
C623        C624   1.378       .  A
C623        H635   1.085       .  S
C624        H636   1.072       .  S
C625        C626   1.184       .  T
C626        C627   1.402   1_455  S
C627        C628   1.392       .  A
C627        C632   1.385       .  A
C628        C629   1.391       .  A
C628        H637   1.083       .  S
C629        C630   1.413       .  A
C629        H638   1.073       .  S
C630        C631   1.412       .  A
C631        C632   1.373       .  A
C631        H639   1.084       .  S
C632        H640   1.083   1_655  S
C641        C642   1.413       .  A
C641        C646   1.412       .  A
C642        C643   1.384       .  A
C642        H655   1.080       .  S
C643        C644   1.390       .  A
C643        H656   1.084       .  S
C644        C645   1.397       .  A
C644        C647   1.433       .  S
C645        C646   1.404       .  A
C645        H657   1.075       .  S
C646        H658   1.081       .  S
C647        C648   1.203   1_655  T
C648        C649   1.435       .  S
C649        C650   1.395       .  A
C649        C654   1.394       .  A
C650        C651   1.400       .  A
C650        H659   1.072       .  S
C651        C652   1.413       .  A
C651        H660   1.080       .  S
C652        C653   1.412       .  A
C653        C654   1.390       .  A
C653        H661   1.083   1_545  S
C654        H662   1.084       .  S
C663        C664   1.420       .  A
C663        C668   1.408       .  A
C664        C665   1.387       .  A
C664        H677   1.083   1_565  S
C665        C666   1.388       .  A
C665        H678   1.076   1_565  S
C666        C667   1.401       .  A
C666        C669   1.425       .  S
C667        C668   1.390       .  A
C667        H679   1.084       .  S
C668        H680   1.081       .  S
C669        C670   1.197   1_565  T
C670        C671   1.426       .  S
C671        C672   1.400       .  A
C671        C676   1.387   1_545  A
C672        C673   1.401       .  A
C672        H681   1.083       .  S
C673        C674   1.420       .  A
C673        H682   1.082       .  S
C674        C675   1.414   1_545  A
C675        C676   1.385       .  A
C675        H683   1.066       .  S
C676        H684   1.085       .  S
C685        C686   1.419       .  A
C685        C690   1.412   1_565  A
C686        C687   1.391       .  A
C686        H699   1.082       .  S
C687        C688   1.396       .  A
C687        H700   1.084       .  S
C688        C689   1.391       .  A
C688        C691   1.426       .  S
C689        C690   1.395   1_565  A
C689        H701   1.073   1_565  S
C690        H702   1.080       .  S
C691        C692   1.197       .  T
C692        C693   1.428   1_565  S
C693        C694   1.391   1_545  A
C693        C698   1.398       .  A
C694        C695   1.395       .  A
C694        H703   1.084       .  S
C695        C696   1.420   1_565  A
C695        H704   1.084       .  S
C696        C697   1.407       .  A
C697        C698   1.387       .  A
C697        H705   1.078       .  S
C698        H706   1.084       .  S
C707        C708   1.418       .  A
C707        C712   1.414       .  A
C708        C709   1.393       .  A
C708        H721   1.079       .  S
C709        C710   1.392       .  A
C709        H722   1.084       .  S
C710        C711   1.391       .  A
C710        C713   1.435       .  S
C711        C712   1.400       .  A
C711        H723   1.077   1_545  S
C712        H724   1.080   1_545  S
C713        C714   1.202   1_655  T
C714        C715   1.433       .  S
C715        C716   1.396       .  A
C715        C720   1.386       .  A
C716        C717   1.399       .  A
C716        H725   1.072       .  S
C717        C718   1.410       .  A
C717        H726   1.077       .  S
C718        C719   1.420       .  A
C719        C720   1.384       .  A
C719        H727   1.081       .  S
C720        H728   1.084       .  S
C729        C730   1.418       .  A
C729        C734   1.424   1_554  A
C730        C731   1.397       .  A
C730        H743   1.078       .  S
C731        C732   1.394       .  A
C731        H744   1.084       .  S
C732        C733   1.401   1_554  A
C732        C735   1.455   1_554  S
C733        C734   1.409       .  A
C733        H745   1.083       .  S
C734        H746   1.078       .  S
C735        C736   1.216   1_565  T
C736        C737   1.456       .  S
C737        C738   1.398       .  A
C737        C742   1.399       .  A
C738        C739   1.402       .  A
C738        H747   1.083   1_556  S
C739        C740   1.415       .  A
C739        H748   1.080   1_556  S
C740        C741   1.422       .  A
C741        C742   1.408       .  A
C741        H749   1.080       .  S
C742        H750   1.083       .  S
C751        C752   1.417   1_556  A
C751        C756   1.399       .  A
C752        C753   1.386       .  A
C752        H765   1.082       .  S
C753        C754   1.388   1_554  A
C753        H766   1.075       .  S
C754        C755   1.396       .  A
C754        C757   1.416   1_556  S
C755        C756   1.389       .  A
C755        H767   1.084       .  S
C756        H768   1.080       .  S
C757        C758   1.192       .  T
C758        C759   1.420       .  S
C759        C760   1.394       .  A
C759        C764   1.383   1_554  A
C760        C761   1.395       .  A
C760        H769   1.084       .  S
C761        C762   1.420       .  A
C761        H770   1.081       .  S
C762        C763   1.414   1_554  A
C763        C764   1.383       .  A
C763        H771   1.081       .  S
C764        H772   1.071       .  S
C773        C774   1.410       .  A
C773        C778   1.415       .  A
C774        C775   1.392       .  A
C774        H787   1.079       .  S
C775        C776   1.400       .  A
C775        H788   1.084       .  S
C776        C777   1.388       .  A
C776        C779   1.425       .  S
C777        C778   1.389       .  A
C777        H789   1.078       .  S
C778        H790   1.084       .  S
C779        C780   1.196       .  T
C780        C781   1.424       .  S
C781        C782   1.390       .  A
C781        C786   1.398   1_556  A
C782        C783   1.392       .  A
C782        H791   1.082       .  S
C783        C784   1.422       .  A
C783        H792   1.081       .  S
C784        C785   1.411   1_556  A
C785        C786   1.390       .  A
C785        H793   1.083       .  S
C786        H794   1.084       .  S
C795        C796   1.420       .  A
C795        C800   1.413       .  A
C796        C797   1.399       .  A
C796        H809   1.077       .  S
C797        C798   1.394       .  A
C797        H810   1.083       .  S
C798        C799   1.395       .  A
C798        C801   1.435       .  S
C799        C800   1.392       .  A
C799        H811   1.084       .  S
C800        H812   1.083       .  S
C801        C802   1.203   1_545  T
C802        C803   1.434       .  S
C803        C804   1.390       .  A
C803        C808   1.398       .  A
C804        C805   1.387       .  A
C804        H813   1.084   1_554  S
C805        C806   1.419       .  A
C805        H814   1.083   1_554  S
C806        C807   1.412       .  A
C807        C808   1.405       .  A
C807        H815   1.081       .  S
C808        H816   1.078       .  S
C817        C818   1.411       .  A
C817        C822   1.416       .  A
C818        C819   1.391       .  A
C818        H831   1.077       .  S
C819        C820   1.399       .  A
C819        H832   1.085       .  S
C820        C821   1.388       .  A
C820        C823   1.427       .  S
C821        C822   1.394       .  A
C821        H833   1.083       .  S
C822        H834   1.083       .  S
C823        C824   1.197       .  T
C824        C825   1.424   1_565  S
C825        C826   1.399       .  A
C825        C830   1.387       .  A
C826        C827   1.400       .  A
C826        H835   1.084       .  S
C827        C828   1.418       .  A
C827        H836   1.081       .  S
C828        C829   1.420       .  A
C829        C830   1.384       .  A
C829        H837   1.078       .  S
C830        H838   1.085       .  S
C839        C840   1.414       .  A
C839        C844   1.411       .  A
C840        C841   1.399       .  A
C840        H853   1.079       .  S
C841        C842   1.398       .  A
C841        H854   1.083       .  S
C842        C843   1.392       .  A
C842        C845   1.429       .  S
C843        C844   1.385       .  A
C843        H855   1.084       .  S
C844        H856   1.084       .  S
C845        C846   1.200       .  T
C846        C847   1.429       .  S
C847        C848   1.393       .  A
C847        C852   1.393       .  A
C848        C849   1.388       .  A
C848        H857   1.084       .  S
C849        C850   1.411       .  A
C849        H858   1.083       .  S
C850        C851   1.411       .  A
C851        C852   1.398       .  A
C851        H859   1.081       .  S
C852        H860   1.079       .  S
C861        C862   1.412       .  A
C861        C866   1.414       .  A
C862        C863   1.398       .  A
C862        H875   1.078       .  S
C863        C864   1.395       .  A
C863        H876   1.084       .  S
C864        C865   1.389       .  A
C864        C867   1.417       .  S
C865        C866   1.379       .  A
C865        H877   1.084       .  S
C866        H878   1.084       .  S
C867        C868   1.193       .  T
C868        C869   1.419       .  S
C869        C870   1.395       .  A
C869        C874   1.387       .  A
C870        C871   1.393       .  A
C870        H879   1.084       .  S
C871        C872   1.416       .  A
C871        H880   1.083       .  S
C872        C873   1.409       .  A
C873        C874   1.387       .  A
C873        H881   1.073       .  S
C874        H882   1.081       .  S
C883        C884   1.417       .  A
C883        C888   1.414       .  A
C884        C885   1.401       .  A
C884        H897   1.083       .  S
C885        C886   1.396       .  A
C885        H898   1.083       .  S
C886        C887   1.395       .  A
C886        C889   1.434       .  S
C887        C888   1.388       .  A
C887        H899   1.085       .  S
C888        H900   1.078       .  S
C889        C890   1.202   1_565  T
C890        C891   1.435       .  S
C891        C892   1.401       .  A
C891        C896   1.392       .  A
C892        C893   1.398       .  A
C892        H901   1.084       .  S
C893        C894   1.412       .  A
C893        H902   1.083       .  S
C894        C895   1.416       .  A
C895        C896   1.393       .  A
C895        H903   1.078       .  S
C896        H904   1.080       .  S
C905        C906   1.413       .  A
C905        C910   1.418       .  A
C906        C907   1.396       .  A
C906        H919   1.082       .  S
C907        C908   1.401       .  A
C907        H920   1.084       .  S
C908        C909   1.387       .  A
C908        C911   1.426       .  S
C909        C910   1.389       .  A
C909        H921   1.083       .  S
C910        H922   1.067       .  S
C911        C912   1.195   1_554  T
C912        C913   1.423       .  S
C913        C914   1.398       .  A
C913        C918   1.392       .  A
C914        C915   1.383       .  A
C914        H923   1.085       .  S
C915        C916   1.410       .  A
C915        H924   1.082       .  S
C916        C917   1.417       .  A
C917        C918   1.394       .  A
C917        H925   1.079       .  S
C918        H926   1.080       .  S
C927        C928   1.411       .  A
C927        C932   1.417       .  A
C928        C929   1.393       .  A
C928        H941   1.083       .  S
C929        C930   1.397       .  A
C929        H942   1.084       .  S
C930        C931   1.400       .  A
C930        C933   1.445       .  S
C931        C932   1.405       .  A
C931        H943   1.079       .  S
C932        H944   1.082       .  S
C933        C934   1.209       .  T
C934        C935   1.445       .  S
C935        C936   1.392       .  A
C935        C940   1.400       .  A
C936        C937   1.389       .  A
C936        H945   1.084       .  S
C937        C938   1.415       .  A
C937        H946   1.075       .  S
C938        C939   1.420       .  A
C939        C940   1.410       .  A
C939        H947   1.082       .  S
C940        H948   1.075       .  S
C949        C950   1.421       .  A
C949        C954   1.413       .  A
C950        C951   1.400       .  A
C950        H963   1.080       .  S
C951        C952   1.393       .  A
C951        H964   1.078       .  S
C952        C953   1.395       .  A
C952        C955   1.436       .  S
C953        C954   1.393       .  A
C953        H965   1.084       .  S
C954        H966   1.081       .  S
C955        C956   1.203       .  T
C956        C957   1.435       .  S
C957        C958   1.397       .  A
C957        C962   1.390       .  A
C958        C959   1.399       .  A
C958        H967   1.074       .  S
C959        C960   1.412       .  A
C959        H968   1.078       .  S
C960        C961   1.415       .  A
C961        C962   1.386       .  A
C961        H969   1.082       .  S
C962        H970   1.084       .  S
C971        C972   1.408       .  A
C971        C976   1.419       .  A
C972        C973   1.392       .  A
C972        H985   1.081       .  S
C973        C974   1.402       .  A
C973        H986   1.084   1_556  S
C974        C975   1.385       .  A
C974        C977   1.420       .  S
C975        C976   1.384       .  A
C975        H987   1.075       .  S
C976        H988   1.083       .  S
C977        C978   1.193   1_556  T
C978        C979   1.418       .  S
C979        C980   1.385       .  A
C979        C984   1.401       .  A
C980        C981   1.382       .  A
C980        H989   1.085       .  S
C981        C982   1.415       .  A
C981        H990   1.069       .  S
C982        C983   1.414       .  A
C983        C984   1.398       .  A
C983        H991   1.083       .  S
C984        H992   1.083       .  S
C993        C994   1.419       .  A
C993        C998   1.416       .  A
C994        C995   1.387       .  A
C994       H1007   1.081       .  S
C995        C996   1.387       .  A
C995       H1008   1.075       .  S
C996        C997   1.396       .  A
C996        C999   1.423       .  S
C997        C998   1.389       .  A
C997       H1009   1.084       .  S
C998       H1010   1.083       .  S
C999       C1000   1.194   1_655  T
C1000      C1001   1.422       .  S
C1001      C1002   1.389       .  A
C1001      C1006   1.400       .  A
C1002      C1003   1.390       .  A
C1002      H1011   1.082       .  S
C1003      C1004   1.419       .  A
C1003      H1012   1.083       .  S
C1004      C1005   1.405       .  A
C1005      C1006   1.388       .  A
C1005      H1013   1.077       .  S
C1006      H1014   1.084       .  S
C1015      C1016   1.418       .  A
C1015      C1020   1.413       .  A
C1016      C1017   1.394       .  A
C1016      H1029   1.083       .  S
C1017      C1018   1.393       .  A
C1017      H1030   1.084       .  S
C1018      C1019   1.402       .  A
C1018      C1021   1.445       .  S
C1019      C1020   1.407       .  A
C1019      H1031   1.080       .  S
C1020      H1032   1.081       .  S
C1021      C1022   1.209       .  T
C1022      C1023   1.444       .  S
C1023      C1024   1.397       .  A
C1023      C1028   1.393       .  A
C1024      C1025   1.404       .  A
C1024      H1033   1.080       .  S
C1025      C1026   1.417       .  A
C1025      H1034   1.078       .  S
C1026      C1027   1.415       .  A
C1027      C1028   1.395       .  A
C1027      H1035   1.082       .  S
C1028      H1036   1.084       .  S
C1037      C1038   1.418       .  A
C1037      C1042   1.412       .  A
C1038      C1039   1.397       .  A
C1038      H1051   1.077       .  S
C1039      C1040   1.393       .  A
C1039      H1052   1.083       .  S
C1040      C1041   1.396       .  A
C1040      C1043   1.431       .  S
C1041      C1042   1.393       .  A
C1041      H1053   1.084       .  S
C1042      H1054   1.083       .  S
C1043      C1044   1.200       .  T
C1044      C1045   1.430       .  S
C1045      C1046   1.389       .  A
C1045      C1050   1.391       .  A
C1046      C1047   1.388       .  A
C1046      H1055   1.084       .  S
C1047      C1048   1.416       .  A
C1047      H1056   1.079       .  S
C1048      C1049   1.419       .  A
C1049      C1050   1.400       .  A
C1049      H1057   1.079       .  S
C1050      H1058   1.081       .  S
C1059      C1060   1.418       .  A
C1059      C1064   1.400       .  A
C1060      C1061   1.386       .  A
C1060      H1073   1.083       .  S
C1061      C1062   1.389       .  A
C1061      H1074   1.070       .  S
C1062      C1063   1.394       .  A
C1062      C1065   1.421       .  S
C1063      C1064   1.389       .  A
C1063      H1075   1.082       .  S
C1064      H1076   1.077       .  S
C1065      C1066   1.195       .  T
C1066      C1067   1.424   1_655  S
C1067      C1068   1.393       .  A
C1067      C1072   1.386       .  A
C1068      C1069   1.392       .  A
C1068      H1077   1.084       .  S
C1069      C1070   1.419       .  A
C1069      H1078   1.082       .  S
C1070      C1071   1.418       .  A
C1071      C1072   1.391       .  A
C1071      H1079   1.081       .  S
C1072      H1080   1.073       .  S
