geometry optimzed in LAMMPS
_audit_creation_date              2020-12-01 
_audit_creation_method            'lammps2cif' 
_symmetry_space_group_name_H-M    'P1' 
_symmetry_Int_Tables_number       1 
_symmetry_cell_setting            triclinic 
loop_ 
_symmetry_equiv_pos_as_xyz 
  x,y,z 
_cell_length_a                    42.38991558 
_cell_length_b                    42.408507883755576 
_cell_length_c                    45.54162049750228 
_cell_angle_alpha                 90.04069876290086 
_cell_angle_beta                  90.13858727776409 
_cell_angle_gamma                 121.70061138263647 
loop_ 
_atom_site_label 
_atom_site_type_symbol 
_atom_site_fract_x 
_atom_site_fract_y 
_atom_site_fract_z 
_atom_site_charge 
O1          O  0.33222469  0.71524638  0.21225761    -0.85500
O2          O  0.26552586  0.65302895  0.22715826    -0.82600
C3          C  0.26073063  0.62682181  0.21057816     0.98000
O4          O  0.28055010  0.61293436  0.21363936    -0.82600
O5          O  0.34244073  0.60972733  0.22611017    -0.85200
C6          C  0.36744745  0.63170017  0.20845288     1.02500
O7          O  0.38166388  0.66616640  0.21085436    -0.78000
O8          O  0.38922384  0.73258218  0.22447753    -0.78200
C9          C  0.36668785  0.73531987  0.20807491     1.02400
O10         O  0.34968494  0.73384446  0.27326180    -0.85500
O11         O  0.28603468  0.66910135  0.28820080    -0.82600
C12         C  0.26434911  0.63480163  0.29212331     0.98000
O13         O  0.26538718  0.61176323  0.27511713    -0.82600
O14         O  0.33067675  0.61572525  0.28780269    -0.85200
C15         C  0.36503432  0.62887269  0.29009653     1.02400
O16         O  0.38719141  0.65254533  0.27177701    -0.78000
O17         O  0.38773756  0.71571261  0.28572390    -0.78200
C18         C  0.37500895  0.73634015  0.28975535     1.02400
Cr19       Cr  0.31022204  0.69076967  0.25013541     1.93700
Cr20       Cr  0.30693364  0.61653518  0.25057210     1.93200
Cr21       Cr  0.38236809  0.68978914  0.24830941     1.39100
O22         O  0.33312954  0.66573816  0.24957699    -1.23300
O23         O  0.72878335  0.35468687  0.27419338    -0.85500
O24         O  0.66346012  0.29182030  0.28980590    -0.82600
C25         C  0.62921483  0.26875439  0.29230961     0.98000
O26         O  0.60653009  0.26855496  0.27403597    -0.82600
O27         O  0.60778546  0.33266218  0.28701389    -0.85200
C28         C  0.62051553  0.36692304  0.28961352     1.02500
O29         O  0.64553199  0.38979478  0.27239682    -0.78000
O30         O  0.70841637  0.39019827  0.28814109    -0.78200
C31         C  0.73058311  0.37911488  0.29128372     1.02400
O32         O  0.70967652  0.33598043  0.21381108    -0.85500
O33         O  0.64808405  0.26926869  0.22923843    -0.82600
C34         C  0.62402953  0.26570079  0.21076662     0.98000
O35         O  0.61055706  0.28601050  0.21258577    -0.82600
O36         O  0.60507545  0.34648911  0.22576124    -0.85200
C37         C  0.62757783  0.37168017  0.20849925     1.02400
O38         O  0.66198477  0.38604793  0.21172903    -0.78000
O39         O  0.72760867  0.39285923  0.22694798    -0.78200
C40         C  0.73016664  0.37047829  0.21014280     1.02400
Cr41       Cr  0.68551009  0.31460484  0.25170400     1.93700
Cr42       Cr  0.61119462  0.31042045  0.24986297     1.93200
Cr43       Cr  0.68407593  0.38599358  0.24989913     1.39100
O44         O  0.66024805  0.33706146  0.25044893    -1.23300
N45         N  0.93998091  0.48714278  0.50054119    -0.36800
N46         N  0.99713086  0.51323161  0.45528636    -0.57300
N47         N  0.05311709  0.53579920  0.50067878    -0.36800
N48         N  0.99570233  0.50616540  0.04565330    -0.57300
C49         C  0.91847259  0.47435451  0.47616541     0.26800
C50         C  0.91772592  0.47065543  0.02389098     0.26800
C51         C  0.07325864  0.53909692  0.47655143     0.26800
C52         C  0.07257474  0.53582076  0.02417219     0.26800
C53         C  0.96802934  0.50631162  0.43823905     0.35400
C54         C  0.02765978  0.53137599  0.43825251     0.35400
C55         C  0.96626184  0.49627623  0.06320071     0.35400
C56         C  0.02597064  0.52211187  0.06321740     0.35400
C57         C  0.88192166  0.45007617  0.48428396    -0.22100
C58         C  0.88145465  0.44784546  0.01424160    -0.22100
C59         C  0.10601500  0.54174165  0.48506840    -0.22000
C60         C  0.10558206  0.53969632  0.01500089    -0.22000
C61         C  0.98010124  0.51989737  0.41016723    -0.23100
C62         C  0.01789336  0.53604879  0.41024586    -0.23100
C63         C  0.97791458  0.50545372  0.09213109    -0.23100
C64         C  0.01573152  0.52213058  0.09208504    -0.23100
C65         C  0.93046027  0.48517432  0.44686242    -0.18500
C66         C  0.92882774  0.47675361  0.05380180    -0.18500
C67         C  0.06243080  0.53447154  0.05390481    -0.18500
C68         C  0.06383058  0.54156695  0.44712220    -0.18500
H69         H  0.85787193  0.43581049  0.47009449     0.14500
H70         H  0.85688091  0.43137899  0.02737352     0.14500
H71         H  0.12799082  0.54468798  0.47106101     0.14500
H72         H  0.12723726  0.54106245  0.02861114     0.14500
H73         H  0.96342317  0.51801439  0.39144365     0.12700
H74         H  0.03596661  0.54920977  0.39164198     0.12700
H75         H  0.96106607  0.50036123  0.11142026     0.12700
H76         H  0.03352993  0.53245928  0.11124124     0.12700
H77         H  0.96745016  0.50857154  0.50124959     0.26000
H78         H  0.02965371  0.53761343  0.50123811     0.26000
N79         N  0.52410323  0.47255301  0.99984535    -0.36800
N80         N  0.49719218  0.50117243  0.04472713    -0.57300
N81         N  0.47059590  0.52972948  0.99914930    -0.36800
N82         N  0.49396661  0.49771520  0.45410905    -0.57300
C83         C  0.52821118  0.45655511  0.02404203     0.26800
C84         C  0.52644002  0.45460774  0.47602385     0.26800
C85         C  0.45410842  0.53369408  0.02309026     0.26800
C86         C  0.45355927  0.53314198  0.47510969     0.26800
C87         C  0.51776226  0.49256177  0.06176577     0.35400
C88         C  0.48860896  0.52190475  0.06149655     0.35400
C89         C  0.51271521  0.48697048  0.43705594     0.35400
C90         C  0.48494287  0.51762948  0.43670427     0.35400
C91         C  0.53367243  0.42830356  0.01564795    -0.22100
C92         C  0.53283352  0.42728360  0.48523504    -0.22100
C93         C  0.42615890  0.53940446  0.01418477    -0.22000
C94         C  0.42629381  0.53980459  0.48390375    -0.22000
C95         C  0.52202167  0.50763536  0.08956630    -0.23100
C96         C  0.50376424  0.52643433  0.08933820    -0.23100
C97         C  0.51528901  0.49979906  0.40863426    -0.23100
C98         C  0.49765389  0.51922099  0.40841091    -0.23100
C99         C  0.52998263  0.46868115  0.05327970    -0.18500
C100        C  0.52572343  0.46400197  0.44635427    -0.18500
C101        C  0.46327308  0.53227770  0.44555666    -0.18500
C102        C  0.46505656  0.53448114  0.05265990    -0.18500
H103        H  0.53861036  0.41075893  0.02969467     0.14500
H104        H  0.53676869  0.40869500  0.47162293     0.14500
H105        H  0.40804420  0.54377313  0.02799149     0.14500
H106        H  0.40810764  0.54405430  0.46999862     0.14500
H107        H  0.53632551  0.50497830  0.10821202     0.12700
H108        H  0.50153174  0.54132269  0.10772255     0.12700
H109        H  0.52829190  0.49541619  0.38995699     0.12700
H110        H  0.49429084  0.53268735  0.38952991     0.12700
H111        H  0.52429444  0.49715952  0.99936036     0.26000
H112        H  0.49492835  0.52938552  0.99908103     0.26000
N113        N  0.53365403  0.05913598  0.00032548    -0.36800
N114        N  0.50017610  0.00127526  0.04459399    -0.57300
N115        N  0.47788580  0.94578021  0.99862192    -0.36800
N116        N  0.50865396  0.00336274  0.45415248    -0.57300
C117        C  0.53564521  0.07929772  0.02409370     0.26800
C118        C  0.53945392  0.08033324  0.47621730     0.26800
C119        C  0.45919768  0.92392704  0.02177988     0.26800
C120        C  0.46328455  0.92523702  0.47395722     0.26800
C121        C  0.51787463  0.03109385  0.06254692     0.35400
C122        C  0.48901326  0.97111096  0.06162069     0.35400
C123        C  0.52912352  0.03397434  0.43765652     0.35400
C124        C  0.49979060  0.97402913  0.43672591     0.35400
C125        C  0.54301602  0.11376123  0.01516237    -0.22100
C126        C  0.54560977  0.11452177  0.48486752    -0.22100
C127        C  0.43244093  0.88892877  0.01171851    -0.22000
C128        C  0.43480254  0.88993632  0.48154380    -0.22000
C129        C  0.51734805  0.01982196  0.09117744    -0.23100
C130        C  0.49898506  0.98184505  0.09061926    -0.23100
C131        C  0.53306781  0.02405625  0.40950387    -0.23100
C132        C  0.51466118  0.98606031  0.40896574    -0.23100
C133        C  0.53298982  0.06826815  0.05372829    -0.18500
C134        C  0.54126074  0.07043389  0.44685536    -0.18500
C135        C  0.47628481  0.93655872  0.44496410    -0.18500
C136        C  0.46760306  0.93396010  0.05172885    -0.18500
H137        H  0.54659410  0.13624309  0.02892494     0.14500
H138        H  0.55164336  0.13775769  0.47102112     0.14500
H139        H  0.41348254  0.86488722  0.02454284     0.14500
H140        H  0.41778790  0.86690815  0.46696134     0.14500
H141        H  0.52872944  0.03711919  0.11051297     0.12700
H142        H  0.49323785  0.96423336  0.10953893     0.12700
H143        H  0.54717879  0.04222342  0.39111983     0.12700
H144        H  0.51198226  0.96925256  0.39011962     0.12700
H145        H  0.53278621  0.03424603  0.00069082     0.26000
H146        H  0.50221611  0.97153114  0.99977755     0.26000
C147        C  0.53454267  0.12899391  0.11554594    -0.11000
C148        C  0.57280943  0.15299070  0.12025295     0.06100
C149        C  0.59786681  0.14895748  0.10292266    -0.09800
C150        C  0.58484529  0.12155804  0.08116482    -0.11400
C151        C  0.54662285  0.09742941  0.07674704    -0.01200
C152        C  0.52154294  0.10127587  0.09407533    -0.10300
C153        C  0.58640074  0.18214899  0.14318024     0.06200
H154        H  0.62747798  0.16731533  0.10598347     0.08100
H155        H  0.60451659  0.11900145  0.06782917     0.11500
H156        H  0.49196343  0.08288484  0.09087503     0.11800
H157        H  0.51472173  0.13143389  0.12876636     0.08100
C158        C  0.57254078  0.20576405  0.14467567    -0.11000
C159        C  0.58483466  0.23295750  0.16652717    -0.10300
C160        C  0.61108000  0.23694114  0.18750964    -0.01200
C161        C  0.62488225  0.21317750  0.18601072    -0.11400
C162        C  0.61281454  0.18620091  0.16396365    -0.09800
H163        H  0.55237239  0.20334331  0.12873705     0.08100
H164        H  0.57374512  0.25085490  0.16698131     0.11800
H165        H  0.64499885  0.21537719  0.20190030     0.11500
H166        H  0.62365389  0.16808029  0.16341254     0.08100
C167        C  0.56734469  0.18225224  0.33639927    -0.11000
C168        C  0.59102916  0.18559121  0.35947668     0.10500
C169        C  0.62703302  0.21714438  0.36068925    -0.09800
C170        C  0.63931698  0.24433614  0.33901623    -0.11400
C171        C  0.61573263  0.24075403  0.31583698    -0.01200
C172        C  0.57951111  0.20962771  0.31488772    -0.10300
C173        C  0.57837750  0.15603484  0.38194039     0.06200
H174        H  0.64571613  0.22092899  0.37847201     0.08100
H175        H  0.66730532  0.26818859  0.34041973     0.11500
H176        H  0.56079946  0.20600379  0.29716120     0.11800
H177        H  0.53964194  0.15805717  0.33455467     0.08100
C178        C  0.54160187  0.13736004  0.39211076    -0.11000
C179        C  0.52955056  0.10921551  0.41290862    -0.10300
C180        C  0.55411461  0.09955006  0.42415208    -0.01200
C181        C  0.59081637  0.11802360  0.41424092    -0.11400
C182        C  0.60284369  0.14597035  0.39319275    -0.09800
H183        H  0.52223279  0.14480111  0.38428467     0.08100
H184        H  0.50116820  0.09521904  0.42056847     0.11800
H185        H  0.61001548  0.11070358  0.42275376     0.11500
H186        H  0.63114562  0.15935296  0.38546649     0.08100
C187        C  0.85862068  0.42024391  0.39202499    -0.11000
C188        C  0.84620891  0.44237613  0.37990716     0.06100
C189        C  0.86214820  0.47912570  0.38989597    -0.09800
C190        C  0.88968626  0.49324736  0.41161721    -0.11400
C191        C  0.90182511  0.47092676  0.42348333    -0.01200
C192        C  0.88630139  0.43447190  0.41346736    -0.10300
C193        C  0.81676521  0.42691377  0.35697986     0.06200
H194        H  0.85360546  0.49704715  0.38073370     0.08100
H195        H  0.90159239  0.52152394  0.41915355     0.11500
H196        H  0.89534653  0.41691560  0.42259003     0.11800
H197        H  0.84653038  0.39166819  0.38527423     0.08100
C198        C  0.81582053  0.40252418  0.33559967    -0.11000
C199        C  0.78765973  0.38688617  0.31456562    -0.10300
C200        C  0.75988278  0.39552103  0.31411269    -0.01200
C201        C  0.76090382  0.42019967  0.33526349    -0.11400
C202        C  0.78903393  0.43569078  0.35652624    -0.09800
H203        H  0.83710670  0.39572038  0.33491543     0.08100
H204        H  0.78789613  0.36823022  0.29844144     0.11800
H205        H  0.73983901  0.42733147  0.33551270     0.11500
H206        H  0.78868505  0.45401535  0.37290841     0.08100
C207        C  0.86549754  0.46908182  0.11553012    -0.11000
C208        C  0.84366829  0.43044304  0.12012341     0.06100
C209        C  0.85069705  0.40737505  0.10256201    -0.09800
C210        C  0.87873520  0.42247181  0.08145798    -0.11400
C211        C  0.89950552  0.46079732  0.07662840    -0.01200
C212        C  0.89254153  0.48395159  0.09366968    -0.10300
C213        C  0.81385114  0.41447568  0.14296079     0.06200
H214        H  0.83431325  0.37755153  0.10461055     0.08100
H215        H  0.88382976  0.40420128  0.06845266     0.11500
H216        H  0.90856677  0.51366699  0.09034875     0.11800
H217        H  0.86225057  0.48820256  0.12896389     0.08100
C218        C  0.80213517  0.37987598  0.15605128    -0.11000
C219        C  0.77425395  0.36511970  0.17730460    -0.10300
C220        C  0.75827892  0.38509459  0.18674515    -0.01200
C221        C  0.76984773  0.41956410  0.17402485    -0.11400
C222        C  0.79675426  0.43376475  0.15206169    -0.09800
H223        H  0.81484732  0.36426950  0.15047928     0.08100
H224        H  0.76595449  0.33854509  0.18699927     0.11800
H225        H  0.75757844  0.43529575  0.18072324     0.11500
H226        H  0.80364353  0.45974667  0.14211193     0.08100
C227        C  0.56341315  0.39080046  0.16488122    -0.11000
C228        C  0.58651923  0.41323228  0.14201111     0.06100
C229        C  0.62329964  0.42156180  0.14102594    -0.09800
C230        C  0.63665512  0.40790147  0.16250440    -0.11400
C231        C  0.61342172  0.38541070  0.18527706    -0.01200
C232        C  0.57664203  0.37689094  0.18615954    -0.10300
C233        C  0.57211620  0.42765738  0.11927753     0.06200
H234        H  0.64165563  0.43829342  0.12346453     0.08100
H235        H  0.66510367  0.41478583  0.16120095     0.11500
H236        H  0.55819489  0.35995567  0.20361740     0.11800
H237        H  0.53517617  0.38440931  0.16661747     0.08100
C238        C  0.53556533  0.40542611  0.10872578    -0.11000
C239        C  0.52179167  0.41895064  0.08755374    -0.10300
C240        C  0.54441064  0.45475328  0.07627709    -0.01200
C241        C  0.58086204  0.47709217  0.08662675    -0.11400
C242        C  0.59459422  0.46372251  0.10803095    -0.09800
H243        H  0.51772287  0.37735046  0.11654226     0.08100
H244        H  0.49361967  0.40136736  0.07965556     0.11800
H245        H  0.59857004  0.50487838  0.07815800     0.11500
H246        H  0.62264115  0.48175174  0.11600333     0.08100
C247        C  0.56355695  0.36905773  0.35289913    -0.11000
C248        C  0.57854292  0.40726425  0.35629593     0.06100
C249        C  0.60684697  0.43205069  0.33736969    -0.09800
C250        C  0.62015457  0.41888188  0.31553547    -0.11400
C251        C  0.60569525  0.38064693  0.31239392    -0.01200
C252        C  0.57712447  0.35585935  0.33125147    -0.10300
C253        C  0.56491364  0.42129943  0.37968881     0.06200
H254        H  0.61849675  0.46162004  0.33938489     0.08100
H255        H  0.64197130  0.43871552  0.30124125     0.11500
H256        H  0.56534332  0.32626846  0.32937368     0.11800
H257        H  0.54179740  0.34947293  0.36736408     0.08100
C258        C  0.52674393  0.40670801  0.38302818    -0.11000
C259        C  0.51395512  0.42048318  0.40480506    -0.10300
C260        C  0.53913686  0.44870304  0.42372866    -0.01200
C261        C  0.57720932  0.46287277  0.42080320    -0.11400
C262        C  0.59004643  0.44945306  0.39878800    -0.09800
H263        H  0.50692186  0.38511792  0.36845191     0.08100
H264        H  0.48447871  0.40931393  0.40686885     0.11800
H265        H  0.59691779  0.48458292  0.43536290     0.11500
H266        H  0.61956677  0.46082634  0.39677864     0.08100
C267        C  0.14664710  0.59650029  0.10061470    -0.11000
C268        C  0.14712815  0.57114905  0.12021474     0.06100
C269        C  0.12004636  0.53323497  0.11727863    -0.09800
C270        C  0.09254476  0.52112214  0.09562399    -0.11400
C271        C  0.09189708  0.54671452  0.07651334    -0.01200
C272        C  0.11932728  0.58436823  0.07893527    -0.10300
C273        C  0.17548768  0.58456421  0.14389433     0.06200
H274        H  0.11965671  0.51311721  0.13214177     0.08100
H275        H  0.07158606  0.49190741  0.09388792     0.11500
H276        H  0.11930695  0.60438115  0.06417840     0.11800
H277        H  0.16751321  0.62576201  0.10202685     0.08100
C278        C  0.19406121  0.56601600  0.15031813    -0.11000
C279        C  0.22169451  0.57965460  0.17198272    -0.10300
C280        C  0.23109913  0.61194404  0.18786400    -0.01200
C281        C  0.21188991  0.62997137  0.18181784    -0.11400
C282        C  0.18452830  0.61651807  0.16003030    -0.09800
H283        H  0.18776645  0.54140976  0.13815442     0.08100
H284        H  0.23578090  0.56496523  0.17622560     0.11800
H285        H  0.21823125  0.65474443  0.19374230     0.11500
H286        H  0.17024777  0.63104380  0.15588484     0.08100
C287        C  0.15373938  0.60305396  0.40628490    -0.11000
C288        C  0.15089574  0.58052935  0.38243286     0.06100
C289        C  0.11886951  0.54477526  0.38013366    -0.09800
C290        C  0.09063370  0.53203979  0.40107618    -0.11400
C291        C  0.09349779  0.55494706  0.42449697    -0.01200
C292        C  0.12525293  0.59053548  0.42687069    -0.10300
C293        C  0.18091338  0.59457775  0.35991699     0.06200
H294        H  0.11525453  0.52674859  0.36192620     0.08100
H295        H  0.06642898  0.50436041  0.39896550     0.11500
H296        H  0.12810063  0.60852653  0.44490903     0.11800
H297        H  0.17818384  0.63033044  0.40932334     0.08100
C298        C  0.20139952  0.63241409  0.35234987    -0.11000
C299        C  0.22904825  0.64560322  0.33091590    -0.10300
C300        C  0.23656057  0.62123907  0.31607306    -0.01200
C301        C  0.21647700  0.58352200  0.32376255    -0.11400
C302        C  0.18918104  0.57039442  0.34551715    -0.09800
H303        H  0.19554511  0.65188921  0.36244620     0.08100
H304        H  0.24392082  0.67479654  0.32546053     0.11800
H305        H  0.22186030  0.56407145  0.31294614     0.11500
H306        H  0.17472941  0.54127714  0.35111082     0.08100
C307        C  0.41564874  0.53866620  0.12061011    -0.11000
C308        C  0.42346759  0.57529719  0.11967007     0.06100
C309        C  0.44502169  0.59822697  0.09629110    -0.09800
C310        C  0.45856344  0.58501799  0.07466357    -0.11400
C311        C  0.45046711  0.54845506  0.07564801    -0.01200
C312        C  0.42874488  0.52533010  0.09870467    -0.10300
C313        C  0.40909103  0.58951682  0.14276379     0.06200
H314        H  0.45106587  0.62630409  0.09438094     0.08100
H315        H  0.47528146  0.60328314  0.05703620     0.11500
H316        H  0.42220808  0.49699738  0.09983611     0.11800
H317        H  0.39977873  0.52033443  0.13844864     0.08100
C318        C  0.37450230  0.56597999  0.15616190    -0.11000
C319        C  0.36095173  0.57956377  0.17754062    -0.10300
C320        C  0.38136846  0.61711343  0.18569092    -0.01200
C321        C  0.41583753  0.64065476  0.17236008    -0.11400
C322        C  0.42968415  0.62697914  0.15140776    -0.09800
H323        H  0.35749241  0.53714099  0.14981709     0.08100
H324        H  0.33425181  0.56077412  0.18740902     0.11800
H325        H  0.43247772  0.66963321  0.17848497     0.11500
H326        H  0.45679846  0.64581378  0.14224948     0.08100
C327        C  0.40413887  0.53601558  0.38477229    -0.11000
C328        C  0.42182629  0.57438879  0.37977342     0.06100
C329        C  0.45349878  0.59867944  0.39643299    -0.09800
C330        C  0.46694337  0.58493066  0.41777066    -0.11400
C331        C  0.44916606  0.54669271  0.42264845    -0.01200
C332        C  0.41779021  0.52229079  0.40596704    -0.10300
C333        C  0.40730434  0.58899277  0.35726711     0.06200
H334        H  0.46750980  0.62835869  0.39329943     0.08100
H335        H  0.49117891  0.60407765  0.43054834     0.11500
H336        H  0.40382687  0.49267524  0.40949819     0.11800
H337        H  0.37999124  0.51659361  0.37204686     0.08100
C338        C  0.43164847  0.61794895  0.33852186    -0.11000
C339        C  0.41793937  0.63113701  0.31694489    -0.10300
C340        C  0.37955200  0.61573558  0.31365527    -0.01200
C341        C  0.35524349  0.58725140  0.33275513    -0.11400
C342        C  0.36896180  0.57395381  0.35424532    -0.09800
H343        H  0.46130827  0.62992128  0.34014719     0.08100
H344        H  0.43744691  0.65320199  0.30265941     0.11800
H345        H  0.32555091  0.57496187  0.33093719     0.11500
H346        H  0.34954552  0.55202668  0.36866330     0.08100
C347        C  0.42677744  0.79804943  0.14658918    -0.11000
C348        C  0.40961869  0.81811605  0.14011718     0.06100
C349        C  0.37801385  0.81016800  0.15640333    -0.09800
C350        C  0.36360618  0.78263982  0.17791074    -0.11400
C351        C  0.38112270  0.76323059  0.18447583    -0.01200
C352        C  0.41302067  0.77136123  0.16884560    -0.10300
C353        C  0.42453574  0.84730678  0.11680450     0.06200
H354        H  0.36453927  0.82557748  0.15304084     0.08100
H355        H  0.33930896  0.77724048  0.19003767     0.11500
H356        H  0.42690680  0.75655043  0.17349179     0.11800
H357        H  0.45060582  0.80250555  0.13433493     0.08100
C358        C  0.46257697  0.86741037  0.10968594    -0.11000
C359        C  0.47635773  0.89507179  0.08823229    -0.10300
C360        C  0.45268014  0.90392559  0.07396092    -0.01200
C361        C  0.41492957  0.88432388  0.08098775    -0.11400
C362        C  0.40088133  0.85588338  0.10171171    -0.09800
H363        H  0.48202310  0.86246186  0.12100600     0.08100
H364        H  0.50566076  0.91009073  0.08308767     0.11800
H365        H  0.39625454  0.89077156  0.07009247     0.11500
H366        H  0.37133703  0.84055667  0.10564635     0.08100
C367        C  0.44020641  0.80499555  0.34693565    -0.11000
C368        C  0.41924840  0.81948584  0.35770040     0.06100
C369        C  0.38317980  0.80514063  0.34666320    -0.09800
C370        C  0.36897147  0.77818228  0.32466089    -0.11400
C371        C  0.39012428  0.76425651  0.31354731    -0.01200
C372        C  0.42567678  0.77746982  0.32520063    -0.10300
C373        C  0.43496287  0.85004776  0.37973887     0.06200
H374        H  0.36578648  0.81474927  0.35502321     0.08100
H375        H  0.34123724  0.76803723  0.31644734     0.11500
H376        H  0.44259841  0.76720355  0.31698962     0.11800
H377        H  0.46817889  0.81556212  0.35471858     0.08100
C378        C  0.45869054  0.85192717  0.40227459    -0.11000
C379        C  0.47268588  0.88044407  0.42312416    -0.10300
C380        C  0.46311077  0.90746621  0.42190490    -0.01200
C381        C  0.43974471  0.90588633  0.39940171    -0.11400
C382        C  0.42604205  0.87766618  0.37842650    -0.09800
H383        H  0.46583843  0.83097793  0.40418923     0.08100
H384        H  0.49057352  0.88119992  0.44049664     0.11800
H385        H  0.43197906  0.92644740  0.39820058     0.11500
H386        H  0.40857194  0.87765404  0.36105301     0.08100
O387        O  0.33256849  0.71543164  0.71233028    -0.85500
O388        O  0.26580116  0.65326912  0.72717093    -0.82600
C389        C  0.26099444  0.62707459  0.71057377     0.98000
O390        O  0.28077951  0.61314823  0.71362245    -0.82600
O391        O  0.34257266  0.60980579  0.72617218    -0.85200
C392        C  0.36760516  0.63178403  0.70853519     1.02500
O393        O  0.38183251  0.66624910  0.71094101    -0.78000
O394        O  0.38953086  0.73271614  0.72462442    -0.78200
C395        C  0.36704394  0.73551233  0.70819780     1.02400
O396        O  0.34995464  0.73392799  0.77331942    -0.85500
O397        O  0.28623726  0.66923123  0.78823120    -0.82600
C398        C  0.26447767  0.63493103  0.79209949     0.98000
O399        O  0.26547557  0.61190208  0.77505679    -0.82600
O400        O  0.33068664  0.61570420  0.78785166    -0.85200
C401        C  0.36502784  0.62874548  0.79013535     1.02400
O402        O  0.38722319  0.65243491  0.77183680    -0.78000
O403        O  0.38789790  0.71568393  0.78585456    -0.78200
C404        C  0.37521860  0.73636100  0.78984535     1.02400
Cr405      Cr  0.31048212  0.69092689  0.75018224     1.93700
Cr406      Cr  0.30705124  0.61663250  0.75058571     1.93200
Cr407      Cr  0.38254529  0.68981687  0.74841504     1.39100
O408        O  0.33331491  0.66583332  0.74963499    -1.23300
O409        O  0.72881058  0.35458212  0.77414431    -0.85500
O410        O  0.66340575  0.29172941  0.78973129    -0.82600
C411        C  0.62915655  0.26863975  0.79219067     0.98000
O412        O  0.60648850  0.26852199  0.77393230    -0.82600
O413        O  0.60766378  0.33260687  0.78690805    -0.85200
C414        C  0.62053516  0.36688307  0.78963966     1.02500
O415        O  0.64565134  0.38979625  0.77250840    -0.78000
O416        O  0.70845910  0.39006874  0.78817041    -0.78200
C417        C  0.73064153  0.37900181  0.79125729     1.02400
O418        O  0.70963143  0.33594077  0.71377219    -0.85500
O419        O  0.64806820  0.26924289  0.72918212    -0.82600
C420        C  0.62413625  0.26578559  0.71063903     0.98000
O421        O  0.61069241  0.28612005  0.71245160    -0.82600
O422        O  0.60517906  0.34657338  0.72563428    -0.85200
C423        C  0.62774877  0.37189398  0.70848328     1.02400
O424        O  0.66213995  0.38627754  0.71181345    -0.78000
O425        O  0.72763454  0.39283035  0.72694741    -0.78200
C426        C  0.73013714  0.37043595  0.71011508     1.02400
Cr427      Cr  0.68548925  0.31455331  0.75165500     1.93700
Cr428      Cr  0.61121194  0.31044251  0.74975106     1.93200
Cr429      Cr  0.68415171  0.38600120  0.74995259     1.39100
O430        O  0.66026579  0.33705976  0.75042195    -1.23300
N431        N  0.94000432  0.48743393  0.00046467    -0.36800
N432        N  0.99715494  0.51352664  0.95519496    -0.57300
N433        N  0.05304166  0.53561347  0.00054607    -0.36800
N434        N  0.99575761  0.50626157  0.54576109    -0.57300
C435        C  0.91851655  0.47464617  0.97607772     0.26800
C436        C  0.91770682  0.47047129  0.52398722     0.26800
C437        C  0.07318263  0.53896399  0.97640547     0.26800
C438        C  0.07268422  0.53612251  0.52432649     0.26800
C439        C  0.96806741  0.50663954  0.93815100     0.35400
C440        C  0.02767203  0.53154717  0.93813772     0.35400
C441        C  0.96627664  0.49622332  0.56330033     0.35400
C442        C  0.02601233  0.52228537  0.56334157     0.35400
C443        C  0.88197681  0.45027131  0.98417621    -0.22100
C444        C  0.88141309  0.44772358  0.51435676    -0.22100
C445        C  0.10589140  0.54148516  0.98489496    -0.22000
C446        C  0.10572205  0.54004818  0.51517838    -0.22000
C447        C  0.98013456  0.52012670  0.91005461    -0.23100
C448        C  0.01791092  0.53619466  0.91011974    -0.23100
C449        C  0.97790079  0.50539007  0.59223941    -0.23100
C450        C  0.01572740  0.52222515  0.59220607    -0.23100
C451        C  0.93050497  0.48551300  0.94677906    -0.18500
C452        C  0.92883954  0.47661669  0.55389463    -0.18500
C453        C  0.06250413  0.53474434  0.55405536    -0.18500
C454        C  0.06380972  0.54160811  0.94699534    -0.18500
H455        H  0.85793839  0.43597413  0.96998017     0.14500
H456        H  0.85683291  0.43135761  0.52750561     0.14500
H457        H  0.12785956  0.54443803  0.97087470     0.14500
H458        H  0.12739595  0.54147873  0.52880484     0.14500
H459        H  0.96346497  0.51819932  0.89131136     0.12700
H460        H  0.03596280  0.54924832  0.89148748     0.12700
H461        H  0.96103532  0.50018796  0.61153464     0.12700
H462        H  0.03349908  0.53258886  0.61137485     0.12700
H463        H  0.96745513  0.50893125  0.00119919     0.26000
H464        H  0.02962275  0.53750483  0.00114654     0.26000
N465        N  0.52383363  0.47239006  0.49967302    -0.36800
N466        N  0.49709635  0.50114785  0.54461558    -0.57300
N467        N  0.47064807  0.52993212  0.49905139    -0.36800
N468        N  0.49425478  0.49783801  0.95426359    -0.57300
C469        C  0.52823620  0.45656372  0.52385101     0.26800
C470        C  0.52652389  0.45462326  0.97622198     0.26800
C471        C  0.45431798  0.53411169  0.52300017     0.26800
C472        C  0.45339628  0.53274434  0.97519673     0.26800
C473        C  0.51741381  0.49225187  0.56170293     0.35400
C474        C  0.48834231  0.52169432  0.56146448     0.35400
C475        C  0.51315608  0.48723060  0.93725769     0.35400
C476        C  0.48526585  0.51778651  0.93686352     0.35400
C477        C  0.53411619  0.42859907  0.51539831    -0.22100
C478        C  0.53248239  0.42701684  0.98547347    -0.22100
C479        C  0.42662812  0.54021956  0.51410710    -0.22000
C480        C  0.42586357  0.53901970  0.98397533    -0.22000
C481        C  0.52127219  0.50690956  0.58962508    -0.23100
C482        C  0.50307989  0.52576544  0.58941637    -0.23100
C483        C  0.51589543  0.50020984  0.90886822    -0.23100
C484        C  0.49817660  0.51956125  0.90861640    -0.23100
C485        C  0.52986388  0.46856655  0.55312609    -0.18500
C486        C  0.52602069  0.46413740  0.94655418    -0.18500
C487        C  0.46333124  0.53215797  0.94566391    -0.18500
C488        C  0.46507694  0.53460690  0.55258322    -0.18500
H489        H  0.53941006  0.41125891  0.52938044     0.14500
H490        H  0.53616318  0.40824508  0.97188148     0.14500
H491        H  0.40867173  0.54481420  0.52791903     0.14500
H492        H  0.40755579  0.54307531  0.97005904     0.14500
H493        H  0.53527335  0.50395667  0.60834658     0.12700
H494        H  0.50063279  0.54040702  0.60788401     0.12700
H495        H  0.52901223  0.49592332  0.89022227     0.12700
H496        H  0.49484162  0.53305238  0.88973959     0.12700
H497        H  0.52370188  0.49681950  0.49920783     0.26000
H498        H  0.49479556  0.52925510  0.49896729     0.26000
N499        N  0.53373655  0.05921156  0.50023118    -0.36800
N500        N  0.49997109  0.00137707  0.54451451    -0.57300
N501        N  0.47799787  0.94587727  0.49856961    -0.36800
N502        N  0.50833454  0.00329506  0.95422412    -0.57300
C503        C  0.53564994  0.07940815  0.52394743     0.26800
C504        C  0.53919011  0.08025217  0.97633995     0.26800
C505        C  0.45921257  0.92403114  0.52170838     0.26800
C506        C  0.46309285  0.92514080  0.97402589     0.26800
C507        C  0.51760407  0.03121352  0.56246040     0.35400
C508        C  0.48879754  0.97122539  0.56156506     0.35400
C509        C  0.52870966  0.03391400  0.93770971     0.35400
C510        C  0.49940666  0.97396441  0.93676837     0.35400
C511        C  0.54314636  0.11389621  0.51495314    -0.22100
C512        C  0.54531829  0.11440667  0.98506311    -0.22100
C513        C  0.43247919  0.88904148  0.51161831    -0.22000
C514        C  0.43466196  0.88982407  0.98163816    -0.22000
C515        C  0.51699942  0.01996005  0.59111039    -0.23100
C516        C  0.49866885  0.98198322  0.59057161    -0.23100
C517        C  0.53250480  0.02399314  0.90951409    -0.23100
C518        C  0.51412398  0.98600166  0.90897046    -0.23100
C519        C  0.53284023  0.06839869  0.55360025    -0.18500
C520        C  0.54089340  0.07038140  0.94694134    -0.18500
C521        C  0.47598978  0.93648478  0.94502133    -0.18500
C522        C  0.46751027  0.93406008  0.55167182    -0.18500
H523        H  0.54670306  0.13640725  0.52866638     0.14500
H524        H  0.55122957  0.13763709  0.97125971     0.14500
H525        H  0.41345742  0.86500339  0.52441609     0.14500
H526        H  0.41761662  0.86679148  0.96706743     0.14500
H527        H  0.52834738  0.03726893  0.61044298     0.12700
H528        H  0.49290439  0.96438804  0.60950490     0.12700
H529        H  0.54649078  0.04214793  0.89109856     0.12700
H530        H  0.51135708  0.96920074  0.89009472     0.12700
H531        H  0.53279209  0.03428509  0.50066319     0.26000
H532        H  0.50233475  0.97162099  0.49976585     0.26000
C533        C  0.53470901  0.12898090  0.61568381    -0.11000
C534        C  0.57299879  0.15326689  0.62001987     0.06100
C535        C  0.59797005  0.14950861  0.60235410    -0.09800
C536        C  0.58482783  0.12207100  0.58062198    -0.11400
C537        C  0.54658074  0.09762510  0.57657833    -0.01200
C538        C  0.52159434  0.10122233  0.59424227    -0.10300
C539        C  0.58668569  0.18245443  0.64290834     0.06200
H540        H  0.62759234  0.16810142  0.60514156     0.08100
H541        H  0.60442726  0.11972092  0.56702036     0.11500
H542        H  0.49199922  0.08260176  0.59133060     0.11800
H543        H  0.51497205  0.13123977  0.62916870     0.08100
C544        C  0.57286354  0.20609510  0.64440155    -0.11000
C545        C  0.58513094  0.23324129  0.66628446    -0.10300
C546        C  0.61129361  0.23713069  0.68730886    -0.01200
C547        C  0.62509964  0.21336798  0.68578492    -0.11400
C548        C  0.61307037  0.18644783  0.66369249    -0.09800
H549        H  0.55271244  0.20369684  0.62845478     0.08100
H550        H  0.57405644  0.25115111  0.66674846     0.11800
H551        H  0.64517005  0.21551223  0.70169713     0.11500
H552        H  0.62388469  0.16830577  0.66311814     0.08100
C553        C  0.56709188  0.18223166  0.83638929    -0.11000
C554        C  0.59092509  0.18526413  0.85923680     0.10500
C555        C  0.62713220  0.21651395  0.86020877    -0.09800
C556        C  0.63942657  0.24375479  0.83857484    -0.11400
C557        C  0.61567249  0.24052576  0.81565063    -0.01200
C558        C  0.57928654  0.20964906  0.81489819    -0.10300
C559        C  0.57818849  0.15576778  0.88177145     0.06200
H560        H  0.64595500  0.22005319  0.87780181     0.08100
H561        H  0.66755926  0.26738158  0.83982140     0.11500
H562        H  0.56043758  0.20627792  0.79736600     0.11800
H563        H  0.53922252  0.15826228  0.83473282     0.08100
C564        C  0.54161259  0.13770167  0.89234666    -0.11000
C565        C  0.52950615  0.10968593  0.91327693    -0.10300
C566        C  0.55382400  0.09954083  0.92424818    -0.01200
C567        C  0.59032752  0.11741437  0.91392453    -0.11400
C568        C  0.60240004  0.14522696  0.89275095    -0.09800
H569        H  0.52245382  0.14552275  0.88472964     0.08100
H570        H  0.50127111  0.09613813  0.92122412     0.11800
H571        H  0.60932830  0.10970013  0.92219309     0.11500
H572        H  0.63053186  0.15813504  0.88471510     0.08100
C573        C  0.85862813  0.42037945  0.89206963    -0.11000
C574        C  0.84645354  0.44257355  0.87968716     0.06100
C575        C  0.86257026  0.47943750  0.88943913    -0.09800
C576        C  0.89002108  0.49360041  0.91122577    -0.11400
C577        C  0.90189584  0.47120253  0.92338436    -0.01200
C578        C  0.88622802  0.43464688  0.91357226    -0.10300
C579        C  0.81699491  0.42702780  0.85678708     0.06200
H580        H  0.85421161  0.49740059  0.88005533     0.08100
H581        H  0.90207042  0.52196704  0.91857996     0.11500
H582        H  0.89509844  0.41704705  0.92290238     0.11800
H583        H  0.84640129  0.39172795  0.88548711     0.08100
C584        C  0.81588670  0.40239262  0.83556710    -0.11000
C585        C  0.78766334  0.38666385  0.81458352    -0.10300
C586        C  0.75998966  0.39544225  0.81404223    -0.01200
C587        C  0.76117426  0.42034725  0.83504669    -0.11400
C588        C  0.78936767  0.43593850  0.85624394    -0.09800
H589        H  0.83708605  0.39546400  0.83497647     0.08100
H590        H  0.78776461  0.36782330  0.79857362     0.11800
H591        H  0.74019600  0.42759749  0.83522518     0.11500
H592        H  0.78914751  0.45444726  0.87251336     0.08100
C593        C  0.86572135  0.46899117  0.61576893    -0.11000
C594        C  0.84381246  0.43035000  0.62029390     0.06100
C595        C  0.85074125  0.40725712  0.60267588    -0.09800
C596        C  0.87872756  0.42233538  0.58153272    -0.11400
C597        C  0.89954137  0.46066661  0.57673525    -0.01200
C598        C  0.89270223  0.48384579  0.59386646    -0.10300
C599        C  0.81395234  0.41439901  0.64307639     0.06200
H600        H  0.83429919  0.37743163  0.60470099     0.08100
H601        H  0.88374496  0.40404987  0.56847285     0.11500
H602        H  0.90878188  0.51356720  0.59058405     0.11800
H603        H  0.86254863  0.48811084  0.62927080     0.08100
C604        C  0.80219977  0.37980107  0.65617415    -0.11000
C605        C  0.77424451  0.36504142  0.67735989    -0.10300
C606        C  0.75824099  0.38501903  0.68672348    -0.01200
C607        C  0.76982013  0.41947301  0.67397150    -0.11400
C608        C  0.79681197  0.43368108  0.65207690    -0.09800
H609        H  0.81494309  0.36420651  0.65065709     0.08100
H610        H  0.76592370  0.33847300  0.68707757     0.11800
H611        H  0.75751558  0.43519409  0.68060672     0.11500
H612        H  0.80374446  0.45966342  0.64209915     0.08100
C613        C  0.56334500  0.39001650  0.66414257    -0.11000
C614        C  0.58684049  0.41352260  0.64188184     0.06100
C615        C  0.62401228  0.42299835  0.64157865    -0.09800
C616        C  0.63733011  0.40933243  0.66309234    -0.11400
C617        C  0.61368947  0.38572255  0.68523693    -0.01200
C618        C  0.57655133  0.37613274  0.68545890    -0.10300
C619        C  0.57239952  0.42782868  0.61907062     0.06200
H620        H  0.64271134  0.44061228  0.62450861     0.08100
H621        H  0.66608118  0.41710443  0.66230379     0.11500
H622        H  0.55775525  0.35831568  0.70241122     0.11800
H623        H  0.53478023  0.38272911  0.66537376     0.08100
C624        C  0.53627356  0.40506557  0.60782935    -0.11000
C625        C  0.52235085  0.41849010  0.58670617    -0.10300
C626        C  0.54443669  0.45471655  0.57609146    -0.01200
C627        C  0.58050248  0.47756660  0.58708294    -0.11400
C628        C  0.59434995  0.46430420  0.60848648    -0.09800
H629        H  0.51886779  0.37667322  0.61509757     0.08100
H630        H  0.49448948  0.40050300  0.57831826     0.11800
H631        H  0.59780449  0.50567916  0.57913491     0.11500
H632        H  0.62204545  0.48273081  0.61698820     0.08100
C633        C  0.56320460  0.36901838  0.85265403    -0.11000
C634        C  0.57878146  0.40726554  0.85650449     0.06100
C635        C  0.60764049  0.43207543  0.83798273    -0.09800
C636        C  0.62088309  0.41889588  0.81610503    -0.11400
C637        C  0.60579976  0.38061083  0.81249718    -0.01200
C638        C  0.57670298  0.35579899  0.83095883    -0.10300
C639        C  0.56516236  0.42131492  0.87991887     0.06200
H640        H  0.61977016  0.46168449  0.84033025     0.08100
H641        H  0.64314081  0.43876128  0.80214040     0.11500
H642        H  0.56443422  0.32616995  0.82871849     0.11800
H643        H  0.54101624  0.34939538  0.86679702     0.08100
C644        C  0.52701438  0.40697249  0.88310762    -0.11000
C645        C  0.51424443  0.42077315  0.90488095    -0.10300
C646        C  0.53941230  0.44878619  0.92395107    -0.01200
C647        C  0.57745430  0.46270941  0.92118104    -0.11400
C648        C  0.59027892  0.44925883  0.89917588    -0.09800
H649        H  0.50719232  0.38556541  0.86841171     0.08100
H650        H  0.48479039  0.40979106  0.90682161     0.11800
H651        H  0.59715627  0.48426078  0.93585076     0.11500
H652        H  0.61977927  0.46044936  0.89730000     0.08100
C653        C  0.14692305  0.59667752  0.60061068    -0.11000
C654        C  0.14718363  0.57137160  0.62039601     0.06100
C655        C  0.11985994  0.53350372  0.61765023    -0.09800
C656        C  0.09237198  0.52140605  0.59598519    -0.11400
C657        C  0.09194522  0.54696628  0.57669312    -0.01200
C658        C  0.11959135  0.58456512  0.57894708    -0.10300
C659        C  0.17559517  0.58480201  0.64404228     0.06200
H660        H  0.11928001  0.51341351  0.63265561     0.08100
H661        H  0.07124806  0.49222907  0.59438350     0.11500
H662        H  0.11974955  0.60455450  0.56405460     0.11800
H663        H  0.16797926  0.62589345  0.60185417     0.08100
C664        C  0.19370194  0.56587525  0.65079741    -0.11000
C665        C  0.22141462  0.57954020  0.67239592    -0.10300
C666        C  0.23135808  0.61223207  0.68788172    -0.01200
C667        C  0.21263387  0.63066102  0.68150655    -0.11400
C668        C  0.18519162  0.61717635  0.65978942    -0.09800
H669        H  0.18698941  0.54094286  0.63894102     0.08100
H670        H  0.23511803  0.56453885  0.67691693     0.11800
H671        H  0.21941720  0.65576563  0.69312042     0.11500
H672        H  0.17128486  0.63201556  0.65539955     0.08100
C673        C  0.15389500  0.60301182  0.90634590    -0.11000
C674        C  0.15091181  0.58064509  0.88232690     0.06100
C675        C  0.11871940  0.54503063  0.87985028    -0.09800
C676        C  0.09049316  0.53225860  0.90079840    -0.11400
C677        C  0.09349186  0.55501806  0.92437913    -0.01200
C678        C  0.12538896  0.59048553  0.92691293    -0.10300
C679        C  0.18096576  0.59469398  0.85983695     0.06200
H680        H  0.11496678  0.52713113  0.86150974     0.08100
H681        H  0.06617939  0.50467150  0.89855724     0.11500
H682        H  0.12834200  0.60836514  0.94507237     0.11800
H683        H  0.17845925  0.63016341  0.90953812     0.08100
C684        C  0.20189252  0.63263063  0.85261543    -0.11000
C685        C  0.22956202  0.64581188  0.83119887    -0.10300
C686        C  0.23665692  0.62135264  0.81602591    -0.01200
C687        C  0.21613875  0.58353338  0.82337318    -0.11400
C688        C  0.18882969  0.57040647  0.84511109    -0.09800
H689        H  0.19637527  0.65221216  0.86296232     0.08100
H690        H  0.24478754  0.67509150  0.82602393     0.11800
H691        H  0.22118420  0.56399432  0.81229859     0.11500
H692        H  0.17405601  0.54119935  0.85043195     0.08100
C693        C  0.41517152  0.53856924  0.62027044    -0.11000
C694        C  0.42354672  0.57540709  0.61965956     0.06100
C695        C  0.44561804  0.59854015  0.59654707    -0.09800
C696        C  0.45914879  0.58534044  0.57490079    -0.11400
C697        C  0.45050431  0.54858522  0.57557826    -0.01200
C698        C  0.42823087  0.52524805  0.59832813    -0.10300
C699        C  0.40921237  0.58962048  0.64281171     0.06200
H700        H  0.45209040  0.62677978  0.59484474     0.08100
H701        H  0.47627968  0.60376116  0.55749511     0.11500
H702        H  0.42125890  0.49676034  0.59920696     0.11800
H703        H  0.39890874  0.52004315  0.63788761     0.08100
C704        C  0.37455546  0.56612514  0.65613901    -0.11000
C705        C  0.36104535  0.57969423  0.67755746    -0.10300
C706        C  0.38153988  0.61720339  0.68579498    -0.01200
C707        C  0.41607936  0.64070789  0.67256046    -0.11400
C708        C  0.42991093  0.62703409  0.65159589    -0.09800
H709        H  0.35743507  0.53733318  0.64970559     0.08100
H710        H  0.33429546  0.56093413  0.68736521     0.11800
H711        H  0.43278364  0.66965253  0.67877126     0.11500
H712        H  0.45709276  0.64584431  0.64254309     0.08100
C713        C  0.40345346  0.53589270  0.88551232    -0.11000
C714        C  0.42170986  0.57418171  0.87991295     0.06100
C715        C  0.45399807  0.59840826  0.89597947    -0.09800
C716        C  0.46751188  0.58468763  0.91729204    -0.11400
C717        C  0.44917637  0.54653210  0.92275188    -0.01200
C718        C  0.41716368  0.52219008  0.90668446    -0.10300
C719        C  0.40719782  0.58875718  0.85735094     0.06200
H720        H  0.46846810  0.62803512  0.89239393     0.08100
H721        H  0.49223263  0.60379734  0.92960117     0.11500
H722        H  0.40275339  0.49263902  0.91067462     0.11800
H723        H  0.37881669  0.51649928  0.87325803     0.08100
C724        C  0.43150397  0.61704878  0.83810959    -0.11000
C725        C  0.41782581  0.63023687  0.81650733    -0.10300
C726        C  0.37949982  0.61549936  0.81366172    -0.01200
C727        C  0.35522701  0.58763013  0.83320677    -0.11400
C728        C  0.36891648  0.57434464  0.85474527    -0.09800
H729        H  0.46110231  0.62850413  0.83937688     0.08100
H730        H  0.43731140  0.65178461  0.80185450     0.11800
H731        H  0.32558566  0.57585610  0.83173625     0.11500
H732        H  0.34953360  0.55293637  0.86953137     0.08100
C733        C  0.42724257  0.79840720  0.64678257    -0.11000
C734        C  0.40983532  0.81818525  0.64009443     0.06100
C735        C  0.37809392  0.81005135  0.65626754    -0.09800
C736        C  0.36378806  0.78261681  0.67785181    -0.11400
C737        C  0.38151985  0.76346649  0.68461208    -0.01200
C738        C  0.41357427  0.77180858  0.66911624    -0.10300
C739        C  0.42465962  0.84731637  0.61671659     0.06200
H740        H  0.36442082  0.82524291  0.65275817     0.08100
H741        H  0.33936596  0.77706544  0.68986615     0.11500
H742        H  0.42763812  0.75720855  0.67390801     0.11800
H743        H  0.45119644  0.80301160  0.63463640     0.08100
C744        C  0.46272177  0.86762709  0.60966765    -0.11000
C745        C  0.47643018  0.89532088  0.58823578    -0.10300
C746        C  0.45265678  0.90400357  0.57390245    -0.01200
C747        C  0.41487610  0.88417097  0.58084080    -0.11400
C748        C  0.40090549  0.85569205  0.60153560    -0.09800
H749        H  0.48224530  0.86283667  0.62103864     0.08100
H750        H  0.50575401  0.91050093  0.58315840     0.11800
H751        H  0.39611688  0.89046823  0.56989901     0.11500
H752        H  0.37134439  0.84019766  0.60539342     0.08100
C753        C  0.44038296  0.80522459  0.84689891    -0.11000
C754        C  0.41926429  0.81949691  0.85774318     0.06100
C755        C  0.38313562  0.80495934  0.84678328    -0.09800
C756        C  0.36900236  0.77800312  0.82479183    -0.11400
C757        C  0.39029250  0.76426746  0.81362128    -0.01200
C758        C  0.42592449  0.77768753  0.82517617    -0.10300
C759        C  0.43485876  0.85001916  0.87979909     0.06200
H760        H  0.36563222  0.81440529  0.85520138     0.08100
H761        H  0.34121183  0.76769866  0.81663693     0.11500
H762        H  0.44295030  0.76757681  0.81689684     0.11800
H763        H  0.46841166  0.81596115  0.85461808     0.08100
C764        C  0.45870002  0.85201845  0.90228017    -0.11000
C765        C  0.47261500  0.88051537  0.92313714    -0.10300
C766        C  0.46284098  0.90739085  0.92197685    -0.01200
C767        C  0.43932353  0.90566740  0.89954892    -0.11400
C768        C  0.42570146  0.87746873  0.87856360    -0.09800
H769        H  0.46601062  0.83118393  0.90413954     0.08100
H770        H  0.49060971  0.88137853  0.94046228     0.11800
H771        H  0.43139544  0.92610889  0.89840664     0.11500
H772        H  0.40812080  0.87734984  0.86123752     0.08100
loop_ 
_geom_bond_atom_site_label_1 
_geom_bond_atom_site_label_2 
_geom_bond_distance 
_geom_bond_site_symmetry_2 
_ccdc_geom_bond_type 
O1          Cr19   1.979       .  S
O1            C9   1.261       .  A
O2          Cr19   2.012       .  S
O2            C3   1.268       .  A
C3            O4   1.262       .  A
C3          C280   1.485       .  S
O4          Cr20   1.978       .  S
O5          Cr20   2.014       .  S
O5            C6   1.267       .  A
C6            O7   1.259       .  A
C6          C320   1.480       .  S
O7          Cr21   1.970       .  S
O8          Cr21   2.001       .  S
O8            C9   1.264       .  A
C9          C351   1.475       .  S
O10         Cr19   2.005       .  S
O10          C18   1.267       .  A
O11         Cr19   1.980       .  S
O11          C12   1.260       .  A
C12          O13   1.265       .  A
C12         C300   1.484       .  S
O13         Cr20   2.007       .  S
O14         Cr20   1.979       .  S
O14          C15   1.260       .  A
C15          O16   1.265       .  A
C15         C340   1.483       .  S
O16         Cr21   2.005       .  S
O17         Cr21   1.974       .  S
O17          C18   1.260       .  A
C18         C371   1.478       .  S
Cr19         O22   1.776       .  S
Cr20         O22   1.776       .  S
Cr21         O22   1.779       .  S
O23         Cr41   2.004       .  S
O23          C31   1.265       .  A
O24         Cr41   1.970       .  S
O24          C25   1.259       .  A
C25          O26   1.267       .  A
C25         C171   1.475       .  S
O26         Cr42   2.010       .  S
O27         Cr42   1.979       .  S
O27          C28   1.262       .  A
C28          O29   1.267       .  A
C28         C251   1.482       .  S
O29         Cr43   2.007       .  S
O30         Cr43   1.982       .  S
O30          C31   1.260       .  A
C31         C200   1.481       .  S
O32         Cr41   1.971       .  S
O32          C40   1.260       .  A
O33         Cr41   2.011       .  S
O33          C34   1.266       .  A
C34          O35   1.262       .  A
C34         C160   1.484       .  S
O35         Cr42   1.980       .  S
O36         Cr42   2.007       .  S
O36          C37   1.266       .  A
C37          O38   1.259       .  A
C37         C231   1.477       .  S
O38         Cr43   1.973       .  S
O39         Cr43   2.007       .  S
O39          C40   1.267       .  A
C40         C220   1.473       .  S
Cr41         O44   1.769       .  S
Cr42         O44   1.770       .  S
Cr43         O44   1.768       .  S
N45          H77   1.035       .  S
N45          C49   1.354       .  A
N45         C436   1.355       .  A
N46          C53   1.351       .  A
N46          C54   1.352   1_655  A
N47          H78   1.037       .  S
N47          C51   1.355       .  A
N47         C438   1.353       .  A
N48          C55   1.352       .  A
N48          C56   1.351   1_655  A
C49          C57   1.387       .  A
C49          C65   1.417       .  A
C50         N431   1.355       .  A
C50          C66   1.419       .  A
C50          C58   1.388       .  A
C51          C59   1.387       .  A
C51          C68   1.417       .  A
C52         N433   1.353       .  A
C52          C67   1.414       .  A
C52          C60   1.386       .  A
C53          C65   1.413       .  A
C53          C61   1.387       .  A
C54          C68   1.415       .  A
C54          C62   1.386       .  A
C55          C63   1.388       .  A
C55          C66   1.415       .  A
C56          C64   1.386       .  A
C56          C67   1.413       .  A
C57         C444   1.373       .  A
C57          H69   1.082       .  S
C58         C443   1.373   1_554  A
C58          H70   1.081       .  S
C59         C446   1.373       .  A
C59          H71   1.082       .  S
C60         C445   1.373   1_554  A
C60          H72   1.082       .  S
C61          C62   1.372   1_655  A
C61          H73   1.082       .  S
C62          H74   1.082       .  S
C63          C64   1.371   1_655  A
C63          H75   1.081       .  S
C64          H76   1.082       .  S
C65         C191   1.481       .  S
C66         C211   1.486       .  S
C67         C271   1.484       .  S
C68         C291   1.491       .  S
N79         H111   1.040       .  S
N79          C83   1.352   1_556  A
N79         C470   1.352       .  A
N80          C87   1.352       .  A
N80          C88   1.351       .  A
N81         H112   1.039       .  S
N81          C85   1.354   1_556  A
N81         C472   1.354       .  A
N82          C89   1.351       .  A
N82          C90   1.352       .  A
C83          C91   1.388       .  A
C83          C99   1.415       .  A
C84         N465   1.352       .  A
C84         C100   1.414       .  A
C84          C92   1.387       .  A
C85          C93   1.388       .  A
C85         C102   1.418       .  A
C86         N467   1.354       .  A
C86         C101   1.414       .  A
C86          C94   1.386       .  A
C87          C99   1.412       .  A
C87          C95   1.386       .  A
C88         C102   1.415       .  A
C88          C96   1.387       .  A
C89          C97   1.387       .  A
C89         C100   1.413       .  A
C90          C98   1.386       .  A
C90         C101   1.412       .  A
C91         C478   1.375   1_554  A
C91         H103   1.082       .  S
C92         C477   1.375       .  A
C92         H104   1.082       .  S
C93         C480   1.376   1_554  A
C93         H105   1.082       .  S
C94         C479   1.376       .  A
C94         H106   1.082       .  S
C95          C96   1.372       .  A
C95         H107   1.082       .  S
C96         H108   1.082       .  S
C97          C98   1.373       .  A
C97         H109   1.082       .  S
C98         H110   1.082       .  S
C99         C240   1.482       .  S
C100        C260   1.482       .  S
C101        C331   1.484       .  S
C102        C311   1.489       .  S
N113        H145   1.037       .  S
N113        C117   1.354       .  A
N113        C504   1.354   1_554  A
N114        C121   1.352       .  A
N114        C122   1.352   1_545  A
N115        H146   1.037       .  S
N115        C119   1.354   1_556  A
N115        C506   1.354       .  A
N116        C123   1.350       .  A
N116        C124   1.351   1_545  A
C117        C125   1.386       .  A
C117        C133   1.414       .  A
C118        N499   1.353       .  A
C118        C134   1.416       .  A
C118        C126   1.388       .  A
C119        C127   1.388       .  A
C119        C136   1.416       .  A
C120        N501   1.354       .  A
C120        C135   1.416       .  A
C120        C128   1.386       .  A
C121        C133   1.413       .  A
C121        C129   1.385       .  A
C122        C136   1.415       .  A
C122        C130   1.387       .  A
C123        C131   1.387       .  A
C123        C134   1.412       .  A
C124        C132   1.387       .  A
C124        C135   1.413       .  A
C125        C512   1.374   1_554  A
C125        H137   1.082       .  S
C126        C511   1.374       .  A
C126        H138   1.082       .  S
C127        C514   1.373   1_554  A
C127        H139   1.081       .  S
C128        C513   1.373       .  A
C128        H140   1.082       .  S
C129        C130   1.372   1_545  A
C129        H141   1.082       .  S
C130        H142   1.082       .  S
C131        C132   1.373   1_545  A
C131        H143   1.082       .  S
C132        H144   1.082       .  S
C133        C151   1.485       .  S
C134        C180   1.479       .  S
C135        C380   1.486       .  S
C136        C360   1.485       .  S
C147        C148   1.406       .  A
C147        C152   1.399       .  A
C147        H157   1.083       .  S
C148        C153   1.482       .  S
C148        C149   1.405       .  A
C149        C150   1.399       .  A
C149        H154   1.083       .  S
C150        C151   1.403       .  A
C150        H155   1.083       .  S
C151        C152   1.402       .  A
C152        H156   1.083       .  S
C153        C158   1.404       .  A
C153        C162   1.404       .  A
C158        C159   1.399       .  A
C158        H163   1.083       .  S
C159        C160   1.406       .  A
C159        H164   1.083       .  S
C160        C161   1.408       .  A
C161        C162   1.400       .  A
C161        H165   1.083       .  S
C162        H166   1.083       .  S
C167        C168   1.406       .  A
C167        C172   1.396       .  A
C167        H177   1.083       .  S
C168        C173   1.484       .  S
C168        C169   1.406       .  A
C169        C170   1.396       .  A
C169        H174   1.083       .  S
C170        C171   1.404       .  A
C170        H175   1.083       .  S
C171        C172   1.404       .  A
C172        H176   1.083       .  S
C173        C178   1.407       .  A
C173        C182   1.408       .  A
C178        C179   1.395       .  A
C178        H183   1.082       .  S
C179        C180   1.400       .  A
C179        H184   1.083       .  S
C180        C181   1.400       .  A
C181        C182   1.397       .  A
C181        H185   1.083       .  S
C182        H186   1.083       .  S
C187        C188   1.407       .  A
C187        C192   1.394       .  A
C187        H197   1.082       .  S
C188        C193   1.487       .  S
C188        C189   1.408       .  A
C189        C190   1.400       .  A
C189        H194   1.083       .  S
C190        C191   1.401       .  A
C190        H195   1.083       .  S
C191        C192   1.400       .  A
C192        H196   1.083       .  S
C193        C198   1.405       .  A
C193        C202   1.407       .  A
C198        C199   1.394       .  A
C198        H203   1.083       .  S
C199        C200   1.405       .  A
C199        H204   1.083       .  S
C200        C201   1.406       .  A
C201        C202   1.400       .  A
C201        H205   1.083       .  S
C202        H206   1.083       .  S
C207        C208   1.412       .  A
C207        C212   1.396       .  A
C207        H217   1.081       .  S
C208        C213   1.499       .  S
C208        C209   1.411       .  A
C209        C210   1.397       .  A
C209        H214   1.081       .  S
C210        C211   1.401       .  A
C210        H215   1.083       .  S
C211        C212   1.399       .  A
C212        H216   1.083       .  S
C213        C218   1.411       .  A
C213        C222   1.411       .  A
C218        C219   1.398       .  A
C218        H223   1.081       .  S
C219        C220   1.402       .  A
C219        H224   1.083       .  S
C220        C221   1.401       .  A
C221        C222   1.396       .  A
C221        H225   1.083       .  S
C222        H226   1.081       .  S
C227        C228   1.406       .  A
C227        C232   1.395       .  A
C227        H237   1.083       .  S
C228        C233   1.486       .  S
C228        C229   1.407       .  A
C229        C230   1.398       .  A
C229        H234   1.083       .  S
C230        C231   1.405       .  A
C230        H235   1.083       .  S
C231        C232   1.404       .  A
C232        H236   1.083       .  S
C233        C238   1.407       .  A
C233        C242   1.408       .  A
C238        C239   1.396       .  A
C238        H243   1.083       .  S
C239        C240   1.401       .  A
C239        H244   1.083       .  S
C240        C241   1.402       .  A
C241        C242   1.398       .  A
C241        H245   1.083       .  S
C242        H246   1.083       .  S
C247        C248   1.404       .  A
C247        C252   1.399       .  A
C247        H257   1.083       .  S
C248        C253   1.479       .  S
C248        C249   1.403       .  A
C249        C250   1.397       .  A
C249        H254   1.083       .  S
C250        C251   1.407       .  A
C250        H255   1.083       .  S
C251        C252   1.406       .  A
C252        H256   1.083       .  S
C253        C258   1.405       .  A
C253        C262   1.405       .  A
C258        C259   1.398       .  A
C258        H263   1.083       .  S
C259        C260   1.402       .  A
C259        H264   1.083       .  S
C260        C261   1.402       .  A
C261        C262   1.397       .  A
C261        H265   1.083       .  S
C262        H266   1.083       .  S
C267        C268   1.406       .  A
C267        C272   1.396       .  A
C267        H277   1.083       .  S
C268        C273   1.485       .  S
C268        C269   1.407       .  A
C269        C270   1.400       .  A
C269        H274   1.083       .  S
C270        C271   1.403       .  A
C270        H275   1.083       .  S
C271        C272   1.401       .  A
C272        H276   1.083       .  S
C273        C278   1.405       .  A
C273        C282   1.405       .  A
C278        C279   1.401       .  A
C278        H283   1.083       .  S
C279        C280   1.407       .  A
C279        H284   1.083       .  S
C280        C281   1.406       .  A
C281        C282   1.398       .  A
C281        H285   1.083       .  S
C282        H286   1.083       .  S
C287        C288   1.408       .  A
C287        C292   1.397       .  A
C287        H297   1.082       .  S
C288        C293   1.495       .  S
C288        C289   1.410       .  A
C289        C290   1.400       .  A
C289        H294   1.082       .  S
C290        C291   1.404       .  A
C290        H295   1.083       .  S
C291        C292   1.402       .  A
C292        H296   1.083       .  S
C293        C298   1.409       .  A
C293        C302   1.408       .  A
C298        C299   1.399       .  A
C298        H303   1.082       .  S
C299        C300   1.404       .  A
C299        H304   1.083       .  S
C300        C301   1.406       .  A
C301        C302   1.400       .  A
C301        H305   1.083       .  S
C302        H306   1.082       .  S
C307        C308   1.409       .  A
C307        C312   1.398       .  A
C307        H317   1.082       .  S
C308        C313   1.493       .  S
C308        C309   1.409       .  A
C309        C310   1.398       .  A
C309        H314   1.082       .  S
C310        C311   1.402       .  A
C310        H315   1.083       .  S
C311        C312   1.403       .  A
C312        H316   1.083       .  S
C313        C318   1.409       .  A
C313        C322   1.407       .  A
C318        C319   1.400       .  A
C318        H323   1.082       .  S
C319        C320   1.404       .  A
C319        H324   1.083       .  S
C320        C321   1.404       .  A
C321        C322   1.397       .  A
C321        H325   1.083       .  S
C322        H326   1.082       .  S
C327        C328   1.408       .  A
C327        C332   1.399       .  A
C327        H337   1.083       .  S
C328        C333   1.487       .  S
C328        C329   1.407       .  A
C329        C330   1.399       .  A
C329        H334   1.083       .  S
C330        C331   1.401       .  A
C330        H335   1.083       .  S
C331        C332   1.402       .  A
C332        H336   1.083       .  S
C333        C338   1.406       .  A
C333        C342   1.406       .  A
C338        C339   1.398       .  A
C338        H343   1.083       .  S
C339        C340   1.407       .  A
C339        H344   1.083       .  S
C340        C341   1.405       .  A
C341        C342   1.399       .  A
C341        H345   1.083       .  S
C342        H346   1.083       .  S
C347        C348   1.411       .  A
C347        C352   1.400       .  A
C347        H357   1.082       .  S
C348        C353   1.497       .  S
C348        C349   1.410       .  A
C349        C350   1.397       .  A
C349        H354   1.081       .  S
C350        C351   1.400       .  A
C350        H355   1.083       .  S
C351        C352   1.403       .  A
C352        H356   1.083       .  S
C353        C358   1.411       .  A
C353        C362   1.411       .  A
C358        C359   1.399       .  A
C358        H363   1.081       .  S
C359        C360   1.401       .  A
C359        H364   1.083       .  S
C360        C361   1.400       .  A
C361        C362   1.396       .  A
C361        H365   1.083       .  S
C362        H366   1.081       .  S
C367        C368   1.408       .  A
C367        C372   1.401       .  A
C367        H377   1.082       .  S
C368        C373   1.489       .  S
C368        C369   1.407       .  A
C369        C370   1.395       .  A
C369        H374   1.082       .  S
C370        C371   1.403       .  A
C370        H375   1.083       .  S
C371        C372   1.405       .  A
C372        H376   1.083       .  S
C373        C378   1.408       .  A
C373        C382   1.409       .  A
C378        C379   1.399       .  A
C378        H383   1.082       .  S
C379        C380   1.404       .  A
C379        H384   1.083       .  S
C380        C381   1.400       .  A
C381        C382   1.395       .  A
C381        H385   1.083       .  S
C382        H386   1.082       .  S
O387       Cr405   1.979       .  S
O387        C395   1.261       .  A
O388       Cr405   2.011       .  S
O388        C389   1.268       .  A
C389        O390   1.262       .  A
C389        C666   1.485       .  S
O390       Cr406   1.978       .  S
O391       Cr406   2.013       .  S
O391        C392   1.267       .  A
C392        O393   1.259       .  A
C392        C706   1.480       .  S
O393       Cr407   1.969       .  S
O394       Cr407   2.002       .  S
O394        C395   1.264       .  A
C395        C737   1.475       .  S
O396       Cr405   2.004       .  S
O396        C404   1.266       .  A
O397       Cr405   1.981       .  S
O397        C398   1.260       .  A
C398        O399   1.265       .  A
C398        C686   1.484       .  S
O399       Cr406   2.007       .  S
O400       Cr406   1.980       .  S
O400        C401   1.261       .  A
C401        O402   1.265       .  A
C401        C726   1.483       .  S
O402       Cr407   2.006       .  S
O403       Cr407   1.974       .  S
O403        C404   1.260       .  A
C404        C757   1.477       .  S
Cr405       O408   1.776       .  S
Cr406       O408   1.776       .  S
Cr407       O408   1.778       .  S
O409       Cr427   2.004       .  S
O409        C417   1.265       .  A
O410       Cr427   1.969       .  S
O410        C411   1.259       .  A
C411        O412   1.267       .  A
C411        C557   1.476       .  S
O412       Cr428   2.011       .  S
O413       Cr428   1.979       .  S
O413        C414   1.262       .  A
C414        O415   1.267       .  A
C414        C637   1.482       .  S
O415       Cr429   2.007       .  S
O416       Cr429   1.981       .  S
O416        C417   1.260       .  A
C417        C586   1.480       .  S
O418       Cr427   1.970       .  S
O418        C426   1.260       .  A
O419       Cr427   2.010       .  S
O419        C420   1.266       .  A
C420        O421   1.262       .  A
C420        C546   1.484       .  S
O421       Cr428   1.981       .  S
O422       Cr428   2.008       .  S
O422        C423   1.266       .  A
C423        O424   1.259       .  A
C423        C617   1.478       .  S
O424       Cr429   1.973       .  S
O425       Cr429   2.007       .  S
O425        C426   1.267       .  A
C426        C606   1.473       .  S
Cr427       O430   1.769       .  S
Cr428       O430   1.770       .  S
Cr429       O430   1.768       .  S
N431        H463   1.035       .  S
N431        C435   1.354   1_554  A
N432        C439   1.351       .  A
N432        C440   1.352   1_655  A
N433        H464   1.038       .  S
N433        C437   1.355   1_554  A
N434        C441   1.352       .  A
N434        C442   1.351   1_655  A
C435        C443   1.387       .  A
C435        C451   1.417       .  A
C436        C452   1.419       .  A
C436        C444   1.388       .  A
C437        C445   1.387       .  A
C437        C454   1.417       .  A
C438        C453   1.414       .  A
C438        C446   1.386       .  A
C439        C451   1.413       .  A
C439        C447   1.387       .  A
C440        C454   1.415       .  A
C440        C448   1.386       .  A
C441        C449   1.388       .  A
C441        C452   1.415       .  A
C442        C450   1.386       .  A
C442        C453   1.413       .  A
C443        H455   1.082       .  S
C444        H456   1.081       .  S
C445        H457   1.082       .  S
C446        H458   1.082       .  S
C447        C448   1.372   1_655  A
C447        H459   1.082       .  S
C448        H460   1.082       .  S
C449        C450   1.370   1_655  A
C449        H461   1.081       .  S
C450        H462   1.082       .  S
C451        C577   1.481       .  S
C452        C597   1.485       .  S
C453        C657   1.484       .  S
C454        C677   1.491       .  S
N465        H497   1.039       .  S
N465        C469   1.353       .  A
N466        C473   1.352       .  A
N466        C474   1.351       .  A
N467        H498   1.039       .  S
N467        C471   1.354       .  A
N468        C475   1.351       .  A
N468        C476   1.352       .  A
C469        C477   1.388       .  A
C469        C485   1.415       .  A
C470        C486   1.414       .  A
C470        C478   1.387       .  A
C471        C479   1.388       .  A
C471        C488   1.418       .  A
C472        C487   1.414       .  A
C472        C480   1.386       .  A
C473        C485   1.413       .  A
C473        C481   1.386       .  A
C474        C488   1.415       .  A
C474        C482   1.387       .  A
C475        C483   1.387       .  A
C475        C486   1.413       .  A
C476        C484   1.386       .  A
C476        C487   1.412       .  A
C477        H489   1.082       .  S
C478        H490   1.082       .  S
C479        H491   1.082       .  S
C480        H492   1.082       .  S
C481        C482   1.372       .  A
C481        H493   1.082       .  S
C482        H494   1.082       .  S
C483        C484   1.373       .  A
C483        H495   1.082       .  S
C484        H496   1.082       .  S
C485        C626   1.483       .  S
C486        C646   1.482       .  S
C487        C717   1.484       .  S
C488        C697   1.489       .  S
N499        H531   1.037       .  S
N499        C503   1.354       .  A
N500        C507   1.353       .  A
N500        C508   1.352   1_545  A
N501        H532   1.037       .  S
N501        C505   1.354       .  A
N502        C509   1.350       .  A
N502        C510   1.351   1_545  A
C503        C511   1.386       .  A
C503        C519   1.414       .  A
C504        C520   1.416       .  A
C504        C512   1.388       .  A
C505        C513   1.388       .  A
C505        C522   1.416       .  A
C506        C521   1.415       .  A
C506        C514   1.386       .  A
C507        C519   1.414       .  A
C507        C515   1.385       .  A
C508        C522   1.416       .  A
C508        C516   1.387       .  A
C509        C517   1.387       .  A
C509        C520   1.412       .  A
C510        C518   1.387       .  A
C510        C521   1.413       .  A
C511        H523   1.082       .  S
C512        H524   1.082       .  S
C513        H525   1.081       .  S
C514        H526   1.082       .  S
C515        C516   1.372   1_545  A
C515        H527   1.082       .  S
C516        H528   1.082       .  S
C517        C518   1.373   1_545  A
C517        H529   1.082       .  S
C518        H530   1.082       .  S
C519        C537   1.486       .  S
C520        C566   1.480       .  S
C521        C766   1.486       .  S
C522        C746   1.486       .  S
C533        C534   1.406       .  A
C533        C538   1.399       .  A
C533        H543   1.083       .  S
C534        C539   1.482       .  S
C534        C535   1.405       .  A
C535        C536   1.399       .  A
C535        H540   1.083       .  S
C536        C537   1.403       .  A
C536        H541   1.083       .  S
C537        C538   1.402       .  A
C538        H542   1.083       .  S
C539        C544   1.404       .  A
C539        C548   1.404       .  A
C544        C545   1.398       .  A
C544        H549   1.083       .  S
C545        C546   1.406       .  A
C545        H550   1.083       .  S
C546        C547   1.408       .  A
C547        C548   1.400       .  A
C547        H551   1.083       .  S
C548        H552   1.083       .  S
C553        C554   1.406       .  A
C553        C558   1.396       .  A
C553        H563   1.083       .  S
C554        C559   1.485       .  S
C554        C555   1.406       .  A
C555        C556   1.396       .  A
C555        H560   1.083       .  S
C556        C557   1.404       .  A
C556        H561   1.083       .  S
C557        C558   1.404       .  A
C558        H562   1.083       .  S
C559        C564   1.407       .  A
C559        C568   1.408       .  A
C564        C565   1.395       .  A
C564        H569   1.083       .  S
C565        C566   1.400       .  A
C565        H570   1.083       .  S
C566        C567   1.400       .  A
C567        C568   1.397       .  A
C567        H571   1.083       .  S
C568        H572   1.083       .  S
C573        C574   1.407       .  A
C573        C578   1.394       .  A
C573        H583   1.082       .  S
C574        C579   1.486       .  S
C574        C575   1.408       .  A
C575        C576   1.399       .  A
C575        H580   1.083       .  S
C576        C577   1.401       .  A
C576        H581   1.083       .  S
C577        C578   1.400       .  A
C578        H582   1.083       .  S
C579        C584   1.405       .  A
C579        C588   1.407       .  A
C584        C585   1.394       .  A
C584        H589   1.083       .  S
C585        C586   1.405       .  A
C585        H590   1.083       .  S
C586        C587   1.406       .  A
C587        C588   1.400       .  A
C587        H591   1.083       .  S
C588        H592   1.083       .  S
C593        C594   1.411       .  A
C593        C598   1.396       .  A
C593        H603   1.081       .  S
C594        C599   1.498       .  S
C594        C595   1.411       .  A
C595        C596   1.397       .  A
C595        H600   1.081       .  S
C596        C597   1.401       .  A
C596        H601   1.083       .  S
C597        C598   1.399       .  A
C598        H602   1.083       .  S
C599        C604   1.411       .  A
C599        C608   1.411       .  A
C604        C605   1.398       .  A
C604        H609   1.081       .  S
C605        C606   1.402       .  A
C605        H610   1.083       .  S
C606        C607   1.401       .  A
C607        C608   1.396       .  A
C607        H611   1.083       .  S
C608        H612   1.081       .  S
C613        C614   1.406       .  A
C613        C618   1.395       .  A
C613        H623   1.083       .  S
C614        C619   1.487       .  S
C614        C615   1.407       .  A
C615        C616   1.399       .  A
C615        H620   1.083       .  S
C616        C617   1.406       .  A
C616        H621   1.083       .  S
C617        C618   1.404       .  A
C618        H622   1.083       .  S
C619        C624   1.407       .  A
C619        C628   1.408       .  A
C624        C625   1.396       .  A
C624        H629   1.083       .  S
C625        C626   1.401       .  A
C625        H630   1.083       .  S
C626        C627   1.402       .  A
C627        C628   1.399       .  A
C627        H631   1.083       .  S
C628        H632   1.083       .  S
C633        C634   1.404       .  A
C633        C638   1.399       .  A
C633        H643   1.083       .  S
C634        C639   1.479       .  S
C634        C635   1.403       .  A
C635        C636   1.397       .  A
C635        H640   1.083       .  S
C636        C637   1.407       .  A
C636        H641   1.083       .  S
C637        C638   1.406       .  A
C638        H642   1.083       .  S
C639        C644   1.405       .  A
C639        C648   1.405       .  A
C644        C645   1.398       .  A
C644        H649   1.083       .  S
C645        C646   1.402       .  A
C645        H650   1.083       .  S
C646        C647   1.402       .  A
C647        C648   1.397       .  A
C647        H651   1.083       .  S
C648        H652   1.083       .  S
C653        C654   1.406       .  A
C653        C658   1.396       .  A
C653        H663   1.083       .  S
C654        C659   1.485       .  S
C654        C655   1.407       .  A
C655        C656   1.400       .  A
C655        H660   1.083       .  S
C656        C657   1.403       .  A
C656        H661   1.083       .  S
C657        C658   1.401       .  A
C658        H662   1.083       .  S
C659        C664   1.405       .  A
C659        C668   1.405       .  A
C664        C665   1.401       .  A
C664        H669   1.083       .  S
C665        C666   1.407       .  A
C665        H670   1.083       .  S
C666        C667   1.406       .  A
C667        C668   1.397       .  A
C667        H671   1.083       .  S
C668        H672   1.083       .  S
C673        C674   1.409       .  A
C673        C678   1.397       .  A
C673        H683   1.082       .  S
C674        C679   1.495       .  S
C674        C675   1.410       .  A
C675        C676   1.400       .  A
C675        H680   1.082       .  S
C676        C677   1.404       .  A
C676        H681   1.083       .  S
C677        C678   1.402       .  A
C678        H682   1.083       .  S
C679        C684   1.409       .  A
C679        C688   1.408       .  A
C684        C685   1.399       .  A
C684        H689   1.082       .  S
C685        C686   1.404       .  A
C685        H690   1.083       .  S
C686        C687   1.406       .  A
C687        C688   1.400       .  A
C687        H691   1.083       .  S
C688        H692   1.082       .  S
C693        C694   1.409       .  A
C693        C698   1.398       .  A
C693        H703   1.082       .  S
C694        C699   1.494       .  S
C694        C695   1.410       .  A
C695        C696   1.398       .  A
C695        H700   1.082       .  S
C696        C697   1.402       .  A
C696        H701   1.083       .  S
C697        C698   1.403       .  A
C698        H702   1.083       .  S
C699        C704   1.409       .  A
C699        C708   1.408       .  A
C704        C705   1.400       .  A
C704        H709   1.082       .  S
C705        C706   1.404       .  A
C705        H710   1.083       .  S
C706        C707   1.404       .  A
C707        C708   1.397       .  A
C707        H711   1.083       .  S
C708        H712   1.082       .  S
C713        C714   1.408       .  A
C713        C718   1.399       .  A
C713        H723   1.083       .  S
C714        C719   1.488       .  S
C714        C715   1.407       .  A
C715        C716   1.399       .  A
C715        H720   1.083       .  S
C716        C717   1.401       .  A
C716        H721   1.083       .  S
C717        C718   1.402       .  A
C718        H722   1.083       .  S
C719        C724   1.406       .  A
C719        C728   1.406       .  A
C724        C725   1.398       .  A
C724        H729   1.083       .  S
C725        C726   1.407       .  A
C725        H730   1.083       .  S
C726        C727   1.406       .  A
C727        C728   1.399       .  A
C727        H731   1.083       .  S
C728        H732   1.083       .  S
C733        C734   1.411       .  A
C733        C738   1.400       .  A
C733        H743   1.082       .  S
C734        C739   1.498       .  S
C734        C735   1.410       .  A
C735        C736   1.397       .  A
C735        H740   1.081       .  S
C736        C737   1.400       .  A
C736        H741   1.083       .  S
C737        C738   1.403       .  A
C738        H742   1.083       .  S
C739        C744   1.411       .  A
C739        C748   1.411       .  A
C744        C745   1.399       .  A
C744        H749   1.081       .  S
C745        C746   1.402       .  A
C745        H750   1.083       .  S
C746        C747   1.400       .  A
C747        C748   1.397       .  A
C747        H751   1.083       .  S
C748        H752   1.081       .  S
C753        C754   1.408       .  A
C753        C758   1.400       .  A
C753        H763   1.082       .  S
C754        C759   1.489       .  S
C754        C755   1.407       .  A
C755        C756   1.394       .  A
C755        H760   1.082       .  S
C756        C757   1.402       .  A
C756        H761   1.083       .  S
C757        C758   1.405       .  A
C758        H762   1.083       .  S
C759        C764   1.408       .  A
C759        C768   1.408       .  A
C764        C765   1.399       .  A
C764        H769   1.082       .  S
C765        C766   1.403       .  A
C765        H770   1.083       .  S
C766        C767   1.400       .  A
C767        C768   1.395       .  A
C767        H771   1.083       .  S
C768        H772   1.082       .  S
