geometry optimzed in LAMMPS
_audit_creation_date              2020-11-30 
_audit_creation_method            'lammps2cif' 
_symmetry_space_group_name_H-M    'P1' 
_symmetry_Int_Tables_number       1 
_symmetry_cell_setting            triclinic 
loop_ 
_symmetry_equiv_pos_as_xyz 
  x,y,z 
_cell_length_a                    51.76351245 
_cell_length_b                    51.732740741695416 
_cell_length_c                    52.375043119678985 
_cell_angle_alpha                 89.81586851826388 
_cell_angle_beta                  89.67318560220804 
_cell_angle_gamma                 90.21408583964522 
loop_ 
_atom_site_label 
_atom_site_type_symbol 
_atom_site_fract_x 
_atom_site_fract_y 
_atom_site_fract_z 
_atom_site_charge 
Zn1        Zn  0.60602619  0.89177431  0.11991330     1.49700
Zn2        Zn  0.64586155  0.90104902  0.07527550     1.49400
Zn3        Zn  0.65407488  0.85417451  0.11603367     1.49100
Zn4        Zn  0.60898278  0.85208760  0.07507642     1.49500
O5          O  0.62915323  0.87466677  0.09666639    -1.84000
O6          O  0.61271907  0.92943437  0.12122618    -0.74700
O7          O  0.68383029  0.89377437  0.07442534    -0.74500
O8          O  0.65087744  0.86228863  0.15421959    -0.74000
O9          O  0.64054979  0.93769668  0.08973880    -0.74700
O10         O  0.61178312  0.88012678  0.15544220    -0.74300
O11         O  0.69026519  0.86109108  0.10151165    -0.74900
O12         O  0.61420854  0.81459208  0.08413503    -0.74300
O13         O  0.63554999  0.89684598  0.03780170    -0.75000
O14         O  0.64653593  0.81555627  0.11195745    -0.74400
O15         O  0.62084373  0.85651673  0.03903361    -0.74900
O16         O  0.57066851  0.86050985  0.07712186    -0.74800
O17         O  0.56918888  0.88709245  0.11035387    -0.74600
C18         C  0.62680004  0.94509083  0.10868679     0.77200
C19         C  0.69857715  0.87718454  0.08476687     0.77700
C20         C  0.63145848  0.87098615  0.16666446     0.76700
C21         C  0.63016445  0.80308114  0.09861918     0.77000
C22         C  0.62894540  0.87600740  0.02646259     0.78200
C23         C  0.55802476  0.87449711  0.09277327     0.77200
Zn24       Zn  0.64279675  0.90425495  0.32510577     1.49700
Zn25       Zn  0.60498904  0.85554902  0.32509071     1.49400
Zn26       Zn  0.65179194  0.85633252  0.36391272     1.49100
Zn27       Zn  0.60400940  0.89452230  0.37086958     1.49500
O28         O  0.62619719  0.87761967  0.34633767    -1.84000
O29         O  0.63156222  0.90087471  0.28806736    -0.74700
O30         O  0.61047391  0.81778202  0.33282202    -0.74500
O31         O  0.68739907  0.86292148  0.34807424    -0.74000
O32         O  0.61535135  0.86107608  0.28871763    -0.74700
O33         O  0.68108638  0.89717790  0.32294402    -0.74300
O34         O  0.64400618  0.81798179  0.35911751    -0.74900
O35         O  0.61164648  0.88202875  0.40589386    -0.74300
O36         O  0.56686169  0.86370813  0.32914834    -0.75000
O37         O  0.65031866  0.86340112  0.40233482    -0.74400
O38         O  0.56656649  0.88963901  0.36287371    -0.74900
O39         O  0.61045290  0.93256818  0.37210859    -0.74800
O40         O  0.63710722  0.94065401  0.33963744    -0.74600
C41         C  0.62406347  0.88053927  0.27646734     0.77200
C42         C  0.62710569  0.80582668  0.34616800     0.77700
C43         C  0.69566467  0.87963815  0.33195305     0.76700
C44         C  0.63164189  0.87207650  0.41585862     0.77000
C45         C  0.55472657  0.87731479  0.34550592     0.78200
C46         C  0.62388438  0.94827504  0.35885853     0.77200
Zn47       Zn  0.84570022  0.89394085  0.00950242     1.49700
Zn48       Zn  0.85474777  0.85215321  0.05211318     1.49400
Zn49       Zn  0.89518822  0.85726911  0.00761870     1.49100
Zn50       Zn  0.89100388  0.90164146  0.05009026     1.49500
O51         O  0.87189944  0.87649569  0.02968534    -1.84000
O52         O  0.80947569  0.88846963  0.02430103    -0.74700
O53         O  0.86104054  0.81555628  0.04230478    -0.74500
O54         O  0.88929791  0.86599590  0.47108126    -0.74000
O55         O  0.81684541  0.85825509  0.05359393    -0.74700
O56         O  0.85066426  0.88481064  0.47129978    -0.74300
O57         O  0.88974178  0.81874255  0.01074884    -0.74900
O58         O  0.92966741  0.89453553  0.04711533    -0.74300
O59         O  0.86573847  0.85713967  0.08790790    -0.75000
O60         O  0.93229518  0.86453241  0.01677528    -0.74400
O61         O  0.88047140  0.89759380  0.08767369    -0.74900
O62         O  0.88469087  0.93837493  0.03649517    -0.74800
O63         O  0.85249184  0.93195333  0.00933817    -0.74600
C64         C  0.80166093  0.87366918  0.04231271     0.77200
C65         C  0.87565116  0.80524031  0.02567978     0.77700
C66         C  0.87013669  0.87570237  0.45936644     0.76700
C67         C  0.94291164  0.87949315  0.03292136     0.77000
C68         C  0.87250137  0.87748197  0.09966071     0.78200
C69         C  0.86873642  0.94686766  0.01995135     0.77200
Zn70       Zn  0.85276702  0.85075714  0.30325321     1.49700
Zn71       Zn  0.84447071  0.89029528  0.25859664     1.49400
Zn72       Zn  0.89050738  0.89904055  0.29851312     1.49100
Zn73       Zn  0.89394787  0.85278568  0.25863768     1.49500
O74         O  0.87062008  0.87334512  0.27952470    -1.84000
O75         O  0.81470457  0.85792577  0.30472597    -0.74700
O76         O  0.85177509  0.92826383  0.25691730    -0.74500
O77         O  0.88062950  0.89746606  0.33607434    -0.74000
O78         O  0.80796078  0.88586474  0.27315934    -0.74700
O79         O  0.86485349  0.85747906  0.33857497    -0.74300
O80         O  0.88444958  0.93482946  0.28358737    -0.74900
O81         O  0.93137430  0.86171582  0.26577711    -0.74300
O82         O  0.84807844  0.87951420  0.22174623    -0.75000
O83         O  0.92913092  0.89197605  0.29579208    -0.74400
O84         O  0.88647033  0.86003438  0.22146680    -0.74900
O85         O  0.88920284  0.81441863  0.26582186    -0.74800
O86         O  0.85810289  0.81341883  0.29505666    -0.74600
C87         C  0.79977783  0.87256273  0.29211720     0.77200
C88         C  0.86842087  0.94307754  0.26706442     0.77700
C89         C  0.87254214  0.87818757  0.34916347     0.76700
C90         C  0.94225506  0.87709545  0.28138068     0.77000
C91         C  0.86736061  0.87003116  0.20978391     0.78200
C92         C  0.87387757  0.80179353  0.28041144     0.77200
Zn93       Zn  0.85585916  0.09445208  0.20045381     1.49700
Zn94       Zn  0.84642810  0.13888554  0.24199755     1.49400
Zn95       Zn  0.89506890  0.10120809  0.24587448     1.49100
Zn96       Zn  0.89374773  0.14301277  0.20227542     1.49500
O97         O  0.87259263  0.11957665  0.22268412    -1.84000
O98         O  0.81806039  0.10214655  0.19796783    -0.74700
O99         O  0.84841609  0.12914193  0.27993209    -0.74500
O100        O  0.88767107  0.06331504  0.24547847    -0.74000
O101        O  0.81030507  0.13297399  0.22644274    -0.74700
O102        O  0.85967508  0.05770408  0.21389147    -0.74300
O103        O  0.88787319  0.11197153  0.28179811    -0.74900
O104        O  0.93208639  0.13687789  0.20753867    -0.74300
O105        O  0.85455336  0.17750130  0.24015899    -0.75000
O106        O  0.93274598  0.10645093  0.23736557    -0.74400
O107        O  0.88648894  0.17988659  0.21173747    -0.74900
O108        O  0.88562020  0.13800364  0.16508882    -0.74800
O109        O  0.86795166  0.09860364  0.16399947    -0.74600
C110        C  0.80264276  0.11784586  0.20871407     0.77200
C111        C  0.86765288  0.12067752  0.29265381     0.77700
C112        C  0.87304968  0.04885645  0.23230952     0.76700
C113        C  0.94456201  0.12153508  0.22196509     0.77000
C114        C  0.87088767  0.19071258  0.22721083     0.78200
C115        C  0.87658040  0.11880359  0.15281693     0.77200
Zn116      Zn  0.84232513  0.10813999  0.49442317     1.49700
Zn117      Zn  0.88811467  0.09824380  0.45364737     1.49400
Zn118      Zn  0.85325177  0.14746788  0.44902349     1.49100
Zn119      Zn  0.89272201  0.14363989  0.49445646     1.49500
O120        O  0.86914670  0.12420772  0.47305105    -1.84000
O121        O  0.84749869  0.06952836  0.49483348    -0.74700
O122        O  0.87826988  0.09964943  0.41568745    -0.74500
O123        O  0.81525296  0.14164607  0.44826819    -0.74000
O124        O  0.88168250  0.06288638  0.46995884    -0.74700
O125        O  0.80612030  0.11561651  0.48080257    -0.74300
O126        O  0.86408644  0.14014808  0.41339287    -0.74900
O127        O  0.88853554  0.18218434  0.48924797    -0.74300
O128        O  0.92667188  0.10577477  0.45521970    -0.75000
O129        O  0.86124797  0.18456975  0.45665642    -0.74400
O130        O  0.92955300  0.13507086  0.48592587    -0.74900
O131        O  0.88677126  0.13739899  0.03136504    -0.74800
O132        O  0.84827756  0.11798961  0.03233674    -0.74600
C133        C  0.86467405  0.05452974  0.48576148     0.77200
C134        C  0.87113962  0.11932025  0.40270757     0.77700
C135        C  0.79900706  0.12870824  0.46137973     0.76700
C136        C  0.87567976  0.19530670  0.47313022     0.77000
C137        C  0.94015622  0.12053903  0.46937802     0.78200
C138        C  0.86798043  0.12734983  0.04362218     0.77200
Zn139      Zn  0.65303809  0.10014976  0.13864798     1.49700
Zn140      Zn  0.60635946  0.09473853  0.17868783     1.49400
Zn141      Zn  0.64392967  0.14351889  0.17989136     1.49100
Zn142      Zn  0.60430269  0.13791366  0.13502588     1.49500
O143        O  0.62676359  0.11895723  0.15791475    -1.84000
O144        O  0.64509458  0.06225770  0.13958212    -0.74700
O145        O  0.61712678  0.09867678  0.21613655    -0.74500
O146        O  0.68216540  0.13647963  0.18171660    -0.74000
O147        O  0.61112846  0.05773503  0.16546471    -0.74700
O148        O  0.68932304  0.10586066  0.15292539    -0.74300
O149        O  0.63137006  0.13919183  0.21573038    -0.74900
O150        O  0.60971124  0.17661334  0.13743967    -0.74300
O151        O  0.56783585  0.10270351  0.17542364    -0.75000
O152        O  0.63832789  0.18039891  0.16871507    -0.74400
O153        O  0.56692694  0.13091896  0.14333638    -0.74900
O154        O  0.61169354  0.12702400  0.09901181    -0.74800
O155        O  0.65027906  0.10813130  0.10095336    -0.74600
C156        C  0.62751350  0.04834893  0.14973730     0.77200
C157        C  0.62485967  0.11886968  0.22792705     0.77700
C158        C  0.69738513  0.12088588  0.17048678     0.76700
C159        C  0.62386671  0.19043090  0.15181628     0.77000
C160        C  0.55532075  0.11695407  0.15989293     0.78200
C161        C  0.63108926  0.11649444  0.08821603     0.77200
Zn162      Zn  0.64189842  0.14692136  0.43209778     1.49700
Zn163      Zn  0.60529535  0.09817295  0.42752554     1.49400
Zn164      Zn  0.60338218  0.14433142  0.38624125     1.49100
Zn165      Zn  0.65174068  0.10679668  0.38760277     1.49500
O166        O  0.62536435  0.12385118  0.40826293    -1.84000
O167        O  0.63215746  0.13913468  0.46792898    -0.74700
O168        O  0.56683608  0.10575462  0.42376337    -0.74500
O169        O  0.60976870  0.18285919  0.39059416    -0.74000
O170        O  0.61530205  0.09964698  0.46531517    -0.74700
O171        O  0.63526243  0.18404811  0.42459189    -0.74300
O172        O  0.56607612  0.13683400  0.39422734    -0.74900
O173        O  0.64955271  0.11776229  0.35053324    -0.74300
O174        O  0.61132723  0.06208138  0.41281929    -0.75000
O175        O  0.61012991  0.13492980  0.34957163    -0.74400
O176        O  0.64363766  0.06895241  0.38553746    -0.74900
O177        O  0.68779173  0.11159875  0.40284087    -0.74800
O178        O  0.67973588  0.14155501  0.43213598    -0.74600
C179        C  0.62458808  0.11826953  0.47842500     0.77200
C180        C  0.55445729  0.12119494  0.40925903     0.77700
C181        C  0.62257179  0.19540741  0.40720230     0.76700
C182        C  0.62989633  0.12573463  0.33825951     0.77000
C183        C  0.62709270  0.05391603  0.39585038     0.78200
C184        C  0.69527419  0.12658135  0.42068908     0.77200
Zn185      Zn  0.10651400  0.85771055  0.05359834     1.49700
Zn186      Zn  0.15375973  0.85931235  0.01266890     1.49400
Zn187      Zn  0.10534707  0.89717399  0.00822602     1.49100
Zn188      Zn  0.14575643  0.90547557  0.05292090     1.49500
O189        O  0.12810163  0.87964586  0.03182985    -1.84000
O190        O  0.11354536  0.81992804  0.04609201    -0.74700
O191        O  0.15141718  0.86733784  0.47379756    -0.74500
O192        O  0.06748915  0.89057610  0.01537254    -0.74000
O193        O  0.14590756  0.82100483  0.01776750    -0.74700
O194        O  0.06811397  0.86511703  0.04918401    -0.74300
O195        O  0.11274258  0.88618449  0.47248418    -0.74900
O196        O  0.14188956  0.94190049  0.03857148    -0.74300
O197        O  0.19027702  0.86566740  0.02730729    -0.75000
O198        O  0.11235983  0.93518321  0.00859444    -0.74400
O199        O  0.18346627  0.89769371  0.05468522    -0.74900
O200        O  0.13487877  0.90254370  0.09000935    -0.74800
O201        O  0.11489044  0.86437230  0.09034711    -0.74600
C202        C  0.12975504  0.80851444  0.03161618     0.77200
C203        C  0.13230359  0.87652196  0.46135877     0.77700
C204        C  0.05549361  0.87806832  0.03273735     0.76700
C205        C  0.12754082  0.95014841  0.02061790     0.77000
C206        C  0.19842731  0.88128586  0.04440582     0.78200
C207        C  0.12515840  0.88332253  0.10202558     0.77200
Zn208      Zn  0.14253077  0.85213458  0.30416188     1.49700
Zn209      Zn  0.10297879  0.85563013  0.25898121     1.49400
Zn210      Zn  0.10457608  0.90089256  0.30130591     1.49100
Zn211      Zn  0.15124226  0.89450556  0.26159365     1.49500
O212        O  0.12507868  0.87589816  0.28148695    -1.84000
O213        O  0.13571118  0.81491361  0.29539254    -0.74700
O214        O  0.06555935  0.86298305  0.26666362    -0.74500
O215        O  0.11330812  0.89756509  0.33930820    -0.74000
O216        O  0.10805750  0.81669993  0.26331059    -0.74700
O217        O  0.13247092  0.85905237  0.34039251    -0.74300
O218        O  0.06637124  0.89261438  0.29744302    -0.74900
O219        O  0.14311109  0.93217648  0.26103259    -0.74300
O220        O  0.11061568  0.86565395  0.22247184    -0.75000
O221        O  0.11020224  0.93805612  0.28769692    -0.74400
O222        O  0.14887944  0.88562025  0.22431821    -0.74900
O223        O  0.18749355  0.88972143  0.27607041    -0.74800
O224        O  0.18067748  0.85799213  0.30394850    -0.74600
C225        C  0.12160833  0.80365065  0.27895715     0.77200
C226        C  0.05401600  0.87763089  0.28252105     0.77700
C227        C  0.12307070  0.87866189  0.35169051     0.76700
C228        C  0.12640926  0.94684828  0.27129633     0.77000
C229        C  0.12996443  0.87652075  0.21170473     0.78200
C230        C  0.19571600  0.87414163  0.29310601     0.77200
Zn231      Zn  0.39794906  0.89825009  0.11528731     1.49700
Zn232      Zn  0.35770804  0.90773980  0.07105853     1.49400
Zn233      Zn  0.39628297  0.85999928  0.06915436     1.49100
Zn234      Zn  0.34991909  0.85997722  0.11024896     1.49500
O235        O  0.37514156  0.88132566  0.09142006    -1.84000
O236        O  0.39070277  0.93591915  0.11729582    -0.74700
O237        O  0.36681241  0.90410263  0.03326919    -0.74500
O238        O  0.43449339  0.86728088  0.07316731    -0.74000
O239        O  0.36328776  0.94404523  0.08580293    -0.74700
O240        O  0.43526376  0.89317941  0.10690073    -0.74300
O241        O  0.38601804  0.86561727  0.03256363    -0.74900
O242        O  0.35814611  0.82178124  0.10501916    -0.74300
O243        O  0.31957563  0.90063215  0.07093576    -0.75000
O244        O  0.39107362  0.82252438  0.07765505    -0.74400
O245        O  0.31349155  0.86619428  0.09573368    -0.74900
O246        O  0.35288367  0.86729848  0.14892330    -0.74800
O247        O  0.39184527  0.88575120  0.15054560    -0.74600
C248        C  0.37657993  0.95151219  0.10492430     0.77200
C249        C  0.37536947  0.88450744  0.02111153     0.77700
C250        C  0.44685468  0.88024930  0.08975518     0.76700
C251        C  0.37515258  0.81008334  0.09167572     0.77000
C252        C  0.30490104  0.88307217  0.08003759     0.78200
C253        C  0.37214082  0.87606579  0.16152222     0.77200
Zn254      Zn  0.39356093  0.85721612  0.36383747     1.49700
Zn255      Zn  0.39253812  0.90372449  0.32256460     1.49400
Zn256      Zn  0.35588173  0.85402690  0.31757605     1.49100
Zn257      Zn  0.34539236  0.89465549  0.36149334     1.49500
O258        O  0.37203069  0.87761675  0.34130888    -1.84000
O259        O  0.43083976  0.86422004  0.35583939    -0.74700
O260        O  0.38625254  0.90026877  0.28395776    -0.74500
O261        O  0.36269431  0.81676746  0.32570890    -0.74000
O262        O  0.43065660  0.89759985  0.32911473    -0.74700
O263        O  0.38728159  0.81853970  0.36020555    -0.74300
O264        O  0.36736484  0.86151608  0.28208407    -0.74900
O265        O  0.30981840  0.88978668  0.34531172    -0.74300
O266        O  0.38510449  0.94022322  0.33588104    -0.75000
O267        O  0.31771417  0.85926084  0.31666438    -0.74400
O268        O  0.35335102  0.93244090  0.36349683    -0.74900
O269        O  0.34704002  0.88428963  0.39886740    -0.74800
O270        O  0.38661367  0.86746461  0.40034400    -0.74600
C271        C  0.44284050  0.88109988  0.34253884     0.77200
C272        C  0.37728918  0.88120708  0.27121848     0.77700
C273        C  0.37492601  0.80558113  0.34357114     0.76700
C274        C  0.30219761  0.87473272  0.32755656     0.77000
C275        C  0.36935572  0.94795060  0.35306429     0.78200
C276        C  0.36671610  0.87673388  0.41137335     0.77200
Zn277      Zn  0.34809926  0.10822196  0.13436924     1.49700
Zn278      Zn  0.39109149  0.10039254  0.17671102     1.49400
Zn279      Zn  0.39659259  0.14573123  0.13473121     1.49100
Zn280      Zn  0.35531621  0.14950640  0.17848517     1.49500
O281        O  0.37301735  0.12590735  0.15592138    -1.84000
O282        O  0.35594572  0.07050531  0.13312308    -0.74700
O283        O  0.42978316  0.10678671  0.17421521    -0.74500
O284        O  0.39177354  0.13548075  0.09809416    -0.74000
O285        O  0.38517036  0.06380585  0.16323403    -0.74700
O286        O  0.35204526  0.11882004  0.09746972    -0.74300
O287        O  0.43323979  0.13761680  0.14454278    -0.74900
O288        O  0.36088457  0.18699261  0.16845574    -0.74300
O289        O  0.37971498  0.10385069  0.21389171    -0.75000
O290        O  0.39026037  0.18454801  0.13759408    -0.74400
O291        O  0.36697147  0.14472134  0.21446862    -0.74900
O292        O  0.31748789  0.14030276  0.17968399    -0.74800
O293        O  0.31178418  0.11171485  0.14848353    -0.74600
C294        C  0.37101539  0.05551546  0.14512524     0.77200
C295        C  0.44344787  0.12170724  0.16011582     0.77700
C296        C  0.37250257  0.12643107  0.08597614     0.76700
C297        C  0.37553012  0.19792118  0.15197285     0.77000
C298        C  0.37269034  0.12396674  0.22615671     0.78200
C299        C  0.30316207  0.12476391  0.16727910     0.77200
Zn300      Zn  0.34548777  0.10503195  0.38603938     1.49700
Zn301      Zn  0.39405841  0.14242876  0.38435961     1.49400
Zn302      Zn  0.35416871  0.14546729  0.42977081     1.49100
Zn303      Zn  0.39179751  0.09656243  0.42566780     1.49500
O304        O  0.37158515  0.12218400  0.40655672    -1.84000
O305        O  0.34767710  0.11621545  0.34900939    -0.74700
O306        O  0.38804577  0.18072995  0.38851346    -0.74500
O307        O  0.31612089  0.13867444  0.43138659    -0.74000
O308        O  0.38715005  0.13354129  0.34785662    -0.74700
O309        O  0.30935529  0.10885879  0.40174166    -0.74300
O310        O  0.36056098  0.18276881  0.42112055    -0.74900
O311        O  0.38571246  0.10102999  0.46394014    -0.74300
O312        O  0.43144106  0.13546090  0.39198139    -0.75000
O313        O  0.36581338  0.13907659  0.46506203    -0.74400
O314        O  0.43001892  0.10330859  0.42026790    -0.74900
O315        O  0.38427008  0.05974042  0.41278364    -0.74800
O316        O  0.35396617  0.06749337  0.38399570    -0.74600
C317        C  0.36730168  0.12459789  0.33662719     0.77200
C318        C  0.37446856  0.19377115  0.40415427     0.77700
C319        C  0.30115102  0.12307688  0.41994721     0.76700
C320        C  0.37655634  0.12021490  0.47630865     0.77000
C321        C  0.44270464  0.11938378  0.40657963     0.78200
C322        C  0.36922565  0.05194963  0.39509965     0.77200
Zn323      Zn  0.15324341  0.10430246  0.23873468     1.49700
Zn324      Zn  0.10742094  0.09666870  0.19847010     1.49400
Zn325      Zn  0.10568457  0.14263077  0.24019254     1.49100
Zn326      Zn  0.14572505  0.14576299  0.19559615     1.49500
O327        O  0.12763898  0.12207914  0.21810481    -1.84000
O328        O  0.14357380  0.06712822  0.24145915    -0.74700
O329        O  0.06904410  0.10329157  0.20469333    -0.74500
O330        O  0.11201402  0.13283344  0.27652112    -0.74000
O331        O  0.11439267  0.05942464  0.21160450    -0.74700
O332        O  0.15145173  0.11558459  0.27584618    -0.74300
O333        O  0.06845032  0.13546910  0.23281482    -0.74900
O334        O  0.14047396  0.18303436  0.20436984    -0.74300
O335        O  0.11462212  0.10189144  0.15983620    -0.75000
O336        O  0.11222169  0.18125356  0.23642447    -0.74400
O337        O  0.13540657  0.13967467  0.15962182    -0.74900
O338        O  0.18335532  0.13901065  0.19523153    -0.74800
O339        O  0.18916231  0.10647307  0.22202096    -0.74600
C340        C  0.12858105  0.05159370  0.23000264     0.77200
C341        C  0.05674393  0.11920573  0.21879238     0.77700
C342        C  0.13157808  0.12365222  0.28793130     0.76700
C343        C  0.12660036  0.19408860  0.22113605     0.77000
C344        C  0.12481881  0.12103485  0.14781770     0.78200
C345        C  0.19779689  0.12182239  0.20481005     0.77200
Zn346      Zn  0.10118829  0.10693583  0.49171354     1.49700
Zn347      Zn  0.15033568  0.14307415  0.48615799     1.49400
Zn348      Zn  0.14065029  0.09676771  0.44648304     1.49100
Zn349      Zn  0.10340963  0.14589545  0.44601597     1.49500
O350        O  0.12417001  0.12341770  0.46744448    -1.84000
O351        O  0.10937291  0.11998442  0.02732169    -0.74700
O352        O  0.18653451  0.13549185  0.47152788    -0.74500
O353        O  0.13567507  0.06061963  0.46176287    -0.74000
O354        O  0.14960537  0.13529526  0.02448672    -0.74700
O355        O  0.11009780  0.06974592  0.49459406    -0.74300
O356        O  0.17886379  0.10338953  0.44444099    -0.74900
O357        O  0.11240221  0.13946479  0.40917616    -0.74300
O358        O  0.14353620  0.18158266  0.48163159    -0.75000
O359        O  0.12965014  0.10003155  0.40951569    -0.74400
O360        O  0.11047492  0.18343764  0.45461277    -0.74900
O361        O  0.06499659  0.13868769  0.45022145    -0.74800
O362        O  0.06347991  0.11057688  0.48230817    -0.74600
C363        C  0.13013414  0.12767518  0.03769486     0.77200
C364        C  0.19431512  0.11943263  0.45465020     0.77700
C365        C  0.12355098  0.05371831  0.48197087     0.76700
C366        C  0.12148565  0.11988456  0.39751502     0.77000
C367        C  0.12709603  0.19450614  0.46881623     0.78200
C368        C  0.05218271  0.12416694  0.46541774     0.77200
Zn369      Zn  0.84776404  0.39086884  0.23856422     1.49700
Zn370      Zn  0.85990179  0.35005316  0.19539386     1.49400
Zn371      Zn  0.89557478  0.40017170  0.20066423     1.49100
Zn372      Zn  0.89709847  0.35452322  0.24227094     1.49500
O373        O  0.87528249  0.37408202  0.21920925    -1.84000
O374        O  0.81270532  0.38471289  0.22270606    -0.74700
O375        O  0.87206901  0.35737087  0.15993729    -0.74500
O376        O  0.88750518  0.43636551  0.21434517    -0.74000
O377        O  0.82190279  0.35542193  0.19321264    -0.74700
O378        O  0.85321960  0.42894750  0.23914680    -0.74300
O379        O  0.88933899  0.39679609  0.16225380    -0.74900
O380        O  0.93490625  0.36183477  0.23466344    -0.74300
O381        O  0.86578662  0.31286610  0.20525988    -0.75000
O382        O  0.93377639  0.39391817  0.20624773    -0.74400
O383        O  0.89025246  0.31597731  0.23978435    -0.74900
O384        O  0.88902007  0.36477765  0.27834999    -0.74800
O385        O  0.84977075  0.38202097  0.27610294    -0.74600
C386        C  0.80588316  0.37020447  0.20429223     0.77200
C387        C  0.88133221  0.37752061  0.14923823     0.77700
C388        C  0.87002045  0.44421079  0.22975858     0.76700
C389        C  0.94635692  0.37809435  0.22008734     0.77000
C390        C  0.87753980  0.30242275  0.22390572     0.78200
C391        C  0.86914517  0.37446798  0.28905546     0.77200
Zn392      Zn  0.84873610  0.39289881  0.49250922     1.49700
Zn393      Zn  0.89183020  0.40492618  0.44927444     1.49400
Zn394      Zn  0.89821922  0.35791644  0.48872813     1.49100
Zn395      Zn  0.85594863  0.35480645  0.44605367     1.49500
O396        O  0.87383733  0.37790252  0.46902441    -1.84000
O397        O  0.85626441  0.43079396  0.49548416    -0.74700
O398        O  0.93120476  0.40008263  0.45198353    -0.74500
O399        O  0.89409864  0.36734679  0.02560333    -0.74000
O400        O  0.88360008  0.44053199  0.46422037    -0.74700
O401        O  0.85359566  0.38107848  0.02843241    -0.74300
O402        O  0.93448924  0.36691314  0.47891721    -0.74900
O403        O  0.86307193  0.31737170  0.45375332    -0.74300
O404        O  0.88129581  0.40254626  0.41166554    -0.75000
O405        O  0.89262287  0.31956360  0.48436273    -0.74400
O406        O  0.86534490  0.36260969  0.40999925    -0.74900
O407        O  0.81780690  0.36096814  0.44717598    -0.74800
O408        O  0.81161560  0.38798877  0.47949460    -0.74600
C409        C  0.87002793  0.44728629  0.48350677     0.77200
C410        C  0.94485447  0.38421892  0.46487298     0.77700
C411        C  0.87478525  0.37446342  0.03892296     0.76700
C412        C  0.87807318  0.30653315  0.46966772     0.77000
C413        C  0.87253226  0.38337946  0.39897554     0.78200
C414        C  0.80293023  0.37487372  0.46072587     0.77200
Zn415      Zn  0.85538526  0.64715842  0.05320063     1.49700
Zn416      Zn  0.89126799  0.59868876  0.04994313     1.49400
Zn417      Zn  0.84506664  0.60568143  0.01050699     1.49100
Zn418      Zn  0.89425867  0.64206598  0.00658766     1.49500
O419        O  0.87154370  0.62337113  0.02988359    -1.84000
O420        O  0.86697600  0.64088938  0.08905598    -0.74700
O421        O  0.88656338  0.56227843  0.03573187    -0.74500
O422        O  0.80948715  0.61065992  0.02686173    -0.74000
O423        O  0.88137523  0.60042758  0.08745064    -0.74700
O424        O  0.81719773  0.64191838  0.05469963    -0.74300
O425        O  0.85297555  0.56797731  0.01004352    -0.74900
O426        O  0.88790001  0.63185844  0.47085548    -0.74300
O427        O  0.92898131  0.60863308  0.04845979    -0.75000
O428        O  0.84880104  0.61378351  0.47352343    -0.74400
O429        O  0.93173829  0.63581085  0.01572308    -0.74900
O430        O  0.88851031  0.68065314  0.00939799    -0.74800
O431        O  0.86258646  0.68363358  0.04327774    -0.74600
C432        C  0.87429763  0.62024404  0.10006867     0.77200
C433        C  0.87004628  0.55350422  0.01991318     0.77700
C434        C  0.80176735  0.62599279  0.04437262     0.76700
C435        C  0.86813063  0.62173062  0.46036946     0.77000
C436        C  0.94235983  0.62303425  0.03366254     0.78200
C437        C  0.87588773  0.69406537  0.02552880     0.77200
Zn438      Zn  0.89376033  0.60014685  0.25675372     1.49700
Zn439      Zn  0.89244721  0.63954180  0.30271776     1.49400
Zn440      Zn  0.84737080  0.64028802  0.26054503     1.49100
Zn441      Zn  0.85201415  0.59334006  0.30063223     1.49500
O442        O  0.87128312  0.61853556  0.28016694    -1.84000
O443        O  0.93128784  0.60442319  0.26520995    -0.74700
O444        O  0.88666863  0.67739353  0.29586989    -0.74500
O445        O  0.85131336  0.63359482  0.22226484    -0.74000
O446        O  0.93047611  0.63230568  0.29747111    -0.74700
O447        O  0.88828963  0.61170674  0.22089079    -0.74300
O448        O  0.85577396  0.67799531  0.26650282    -0.74900
O449        O  0.81502403  0.60307554  0.30082464    -0.74300
O450        O  0.88345146  0.63218050  0.33950703    -0.75000
O451        O  0.81018379  0.63480313  0.27260568    -0.74400
O452        O  0.86111756  0.59530527  0.33806215    -0.74900
O453        O  0.85490457  0.55687062  0.28624524    -0.74800
O454        O  0.88519265  0.56258600  0.25641488    -0.74600
C455        C  0.94277801  0.61806604  0.28182281     0.77200
C456        C  0.87159870  0.68968506  0.28105906     0.77700
C457        C  0.86978261  0.62314853  0.20980492     0.76700
C458        C  0.80091360  0.61944805  0.28945369     0.77000
C459        C  0.87179231  0.61349704  0.35055404     0.78200
C460        C  0.86924340  0.54821202  0.26835947     0.77200
Zn461      Zn  0.60194964  0.60216679  0.11486006     1.49700
Zn462      Zn  0.65050282  0.63927217  0.11208552     1.49400
Zn463      Zn  0.64369466  0.59321077  0.07201970     1.49100
Zn464      Zn  0.60674277  0.64285309  0.06992189     1.49500
O465        O  0.62576258  0.61954615  0.09198206    -1.84000
O466        O  0.60666246  0.61504055  0.15029628    -0.74700
O467        O  0.68674131  0.63460518  0.09721398    -0.74500
O468        O  0.63906460  0.55678179  0.08710055    -0.74000
O469        O  0.64764650  0.62815094  0.14932953    -0.74700
O470        O  0.61026781  0.56419026  0.11769569    -0.74300
O471        O  0.68153448  0.60106093  0.07137000    -0.74900
O472        O  0.61659402  0.63568392  0.03336608    -0.74300
O473        O  0.64273988  0.67780111  0.11031632    -0.75000
O474        O  0.63446988  0.59655452  0.03457794    -0.74400
O475        O  0.61447664  0.68048128  0.07855193    -0.74900
O476        O  0.56815821  0.63669229  0.07336920    -0.74800
O477        O  0.56483181  0.60728234  0.10428229    -0.74600
C478        C  0.62742073  0.62117843  0.16169205     0.77200
C479        C  0.69571136  0.61859687  0.08093808     0.77700
C480        C  0.62548878  0.54890713  0.10605171     0.76700
C481        C  0.62632093  0.61614067  0.02211909     0.77000
C482        C  0.62867508  0.69114822  0.09538184     0.78200
C483        C  0.55451151  0.62196171  0.08765098     0.77200
Zn484      Zn  0.60626405  0.64494019  0.32012690     1.49700
Zn485      Zn  0.64264169  0.59646097  0.32046957     1.49400
Zn486      Zn  0.65237903  0.64213575  0.36063613     1.49100
Zn487      Zn  0.60368533  0.60528882  0.36569337     1.49500
O488        O  0.62641450  0.62249161  0.34177571    -1.84000
O489        O  0.61454272  0.63808785  0.28328589    -0.74700
O490        O  0.67981680  0.60514380  0.31698993    -0.74500
O491        O  0.64469223  0.68090573  0.35741845    -0.74000
O492        O  0.63052744  0.59822352  0.28411143    -0.74700
O493        O  0.61355991  0.68227434  0.32827419    -0.74300
O494        O  0.68831396  0.63554253  0.34550061    -0.74900
O495        O  0.61128544  0.61529856  0.40135331    -0.74300
O496        O  0.63931486  0.56033514  0.33566837    -0.75000
O497        O  0.65101901  0.63156233  0.39834079    -0.74400
O498        O  0.61010809  0.56752908  0.36600555    -0.74900
O499        O  0.56644443  0.61139539  0.35804927    -0.74800
O500        O  0.56819297  0.63850537  0.32501652    -0.74600
C501        C  0.62274092  0.61799776  0.27186178     0.77200
C502        C  0.69561927  0.62048163  0.32760298     0.77700
C503        C  0.62902049  0.69363683  0.34344173     0.76700
C504        C  0.63224688  0.62255089  0.41164792     0.77000
C505        C  0.62510569  0.55238560  0.35406396     0.78200
C506        C  0.55542931  0.62493256  0.34102164     0.77200
Zn507      Zn  0.64806695  0.34829031  0.17777114     1.49700
Zn508      Zn  0.60748888  0.35487045  0.13421707     1.49400
Zn509      Zn  0.61295837  0.39876995  0.17761909     1.49100
Zn510      Zn  0.65697829  0.39134974  0.13527596     1.49500
O511        O  0.63113465  0.37349199  0.15623600    -1.84000
O512        O  0.64026619  0.31158871  0.16807734    -0.74700
O513        O  0.57108355  0.36424691  0.14287448    -0.74500
O514        O  0.62151723  0.39291314  0.21544450    -0.74000
O515        O  0.61108737  0.31588130  0.13741797    -0.74700
O516        O  0.63945498  0.35391179  0.21454008    -0.74300
O517        O  0.57429248  0.39399099  0.17334213    -0.74900
O518        O  0.64927722  0.42940957  0.13426084    -0.74300
O519        O  0.61406313  0.36481535  0.09765869    -0.75000
O520        O  0.62061982  0.43577007  0.16528354    -0.74400
O521        O  0.65398130  0.38120523  0.09797854    -0.74900
O522        O  0.69293351  0.38630486  0.15022797    -0.74800
O523        O  0.68594589  0.35346345  0.17686467    -0.74600
C524        C  0.62507249  0.30179575  0.15172075     0.77200
C525        C  0.56076735  0.37995632  0.15851503     0.77700
C526        C  0.63084458  0.37319333  0.22690672     0.76700
C527        C  0.63449094  0.44434459  0.14682453     0.77000
C528        C  0.63386052  0.37374872  0.08606076     0.78200
C529        C  0.70094933  0.37013006  0.16683628     0.77200
Zn530      Zn  0.65486190  0.35721824  0.39021105     1.49700
Zn531      Zn  0.60740195  0.39456943  0.38122436     1.49400
Zn532      Zn  0.60574553  0.35692951  0.42760728     1.49100
Zn533      Zn  0.64410933  0.40482228  0.42860404     1.49500
O534        O  0.62841813  0.37835123  0.40691801    -1.84000
O535        O  0.65359145  0.36211742  0.35113068    -0.74700
O536        O  0.56954134  0.39067520  0.38801183    -0.74500
O537        O  0.61092060  0.31966265  0.41928424    -0.74000
O538        O  0.61567481  0.38181320  0.34646325    -0.74700
O539        O  0.64759406  0.31918392  0.39738115    -0.74300
O540        O  0.56817317  0.36476707  0.42177384    -0.74900
O541        O  0.63180514  0.40141948  0.46530319    -0.74300
O542        O  0.61475780  0.43194888  0.37981462    -0.75000
O543        O  0.61382646  0.36222282  0.46468600    -0.74400
O544        O  0.63871363  0.44115596  0.41368924    -0.74900
O545        O  0.68220191  0.39753971  0.43212080    -0.74800
O546        O  0.69032203  0.36542219  0.40522576    -0.74600
C547        C  0.63554568  0.37103377  0.33706495     0.77200
C548        C  0.55683445  0.37833095  0.40494862     0.77700
C549        C  0.62888249  0.30725878  0.40818024     0.76700
C550        C  0.62315336  0.38138083  0.47680324     0.77000
C551        C  0.62675635  0.44813197  0.39353178     0.78200
C552        C  0.69775198  0.38121781  0.42242869     0.77200
Zn553      Zn  0.10624625  0.64815836  0.05556346     1.49700
Zn554      Zn  0.10113797  0.60763093  0.01081280     1.49400
Zn555      Zn  0.14983288  0.64569916  0.01196191     1.49100
Zn556      Zn  0.14414707  0.59937193  0.05219740     1.49500
O557        O  0.12542722  0.62543697  0.03269630    -1.84000
O558        O  0.06734464  0.64300359  0.05226817    -0.74700
O559        O  0.10816158  0.61732926  0.47457021    -0.74500
O560        O  0.14338917  0.68411319  0.01675149    -0.74000
O561        O  0.06442482  0.61359289  0.02153042    -0.74700
O562        O  0.11447718  0.68568173  0.04836194    -0.74300
O563        O  0.14838544  0.63304195  0.47484929    -0.74900
O564        O  0.18188354  0.60823399  0.05225924    -0.74300
O565        O  0.10807290  0.56945522  0.00927868    -0.75000
O566        O  0.18696740  0.63922340  0.02325898    -0.74400
O567        O  0.13971769  0.56310016  0.03705286    -0.74900
O568        O  0.13471649  0.60139877  0.08962979    -0.74800
O569        O  0.11625907  0.64026413  0.09172529    -0.74600
C570        C  0.05392540  0.62834622  0.03794279     0.77200
C571        C  0.12840613  0.62506766  0.46289977     0.77700
C572        C  0.12928857  0.69685088  0.03223432     0.76700
C573        C  0.19621626  0.62428978  0.04033319     0.77000
C574        C  0.12443526  0.55468820  0.01988072     0.78200
C575        C  0.12622915  0.62055797  0.10241546     0.77200
Zn576      Zn  0.10327461  0.60375729  0.25826737     1.49700
Zn577      Zn  0.14205672  0.59442132  0.30387823     1.49400
Zn578      Zn  0.15096660  0.64081140  0.26351440     1.49100
Zn579      Zn  0.10408013  0.64198815  0.30384106     1.49500
O580        O  0.12544020  0.62040400  0.28258261    -1.84000
O581        O  0.11220606  0.56641003  0.25532037    -0.74700
O582        O  0.18017639  0.60276036  0.30627540    -0.74500
O583        O  0.14944299  0.63096360  0.22554817    -0.74000
O584        O  0.13791913  0.55836060  0.28833891    -0.74700
O585        O  0.10852692  0.61843043  0.22368203    -0.74300
O586        O  0.18701975  0.63466268  0.27830401    -0.74900
O587        O  0.10960509  0.67921186  0.29466818    -0.74300
O588        O  0.12931420  0.59662788  0.34064271    -0.75000
O589        O  0.14242909  0.67931787  0.26705099    -0.74400
O590        O  0.11407789  0.63659119  0.34052887    -0.74900
O591        O  0.06582859  0.63409426  0.29943502    -0.74800
O592        O  0.06577819  0.60674159  0.26679278    -0.74600
C593        C  0.12592356  0.55099834  0.26837249     0.77200
C594        C  0.19513894  0.61912867  0.29547998     0.77700
C595        C  0.12963261  0.62428233  0.21263796     0.76700
C596        C  0.12544632  0.69129839  0.28024298     0.77000
C597        C  0.12195896  0.61683172  0.35263703     0.78200
C598        C  0.05387469  0.61987864  0.28353079     0.77200
Zn599      Zn  0.14723886  0.35472739  0.19314147     1.49700
Zn600      Zn  0.10850157  0.40231664  0.19971163     1.49400
Zn601      Zn  0.10812552  0.35612404  0.23965849     1.49100
Zn602      Zn  0.15641594  0.39431755  0.23809752     1.49500
O603        O  0.13004051  0.37702618  0.21753670    -1.84000
O604        O  0.13405162  0.36194160  0.15815517    -0.74700
O605        O  0.07055158  0.39467855  0.20555749    -0.74500
O606        O  0.11560282  0.31799513  0.23536132    -0.74000
O607        O  0.11442853  0.40007753  0.16128776    -0.74700
O608        O  0.14235720  0.31682536  0.20191968    -0.74300
O609        O  0.07019123  0.36176288  0.23286370    -0.74900
O610        O  0.15413752  0.38298067  0.27544692    -0.55100
O611        O  0.11483055  0.43835298  0.21392374    -0.75000
O612        O  0.11450497  0.36629682  0.27584877    -0.74400
O613        O  0.14778204  0.43207017  0.24041097    -0.74900
O614        O  0.19256436  0.39087664  0.22176733    -0.74800
O615        O  0.18515602  0.36297439  0.19045762    -0.74600
C616        C  0.12332601  0.38147529  0.14792705     0.77200
C617        C  0.05833269  0.37813029  0.21908179     0.77700
C618        C  0.12921150  0.30546839  0.21930861     0.76700
C619        C  0.13402583  0.37527986  0.28757149     0.77000
C620        C  0.13076414  0.44661438  0.23053056     0.78200
C621        C  0.20037896  0.37790300  0.20247199     0.77200
Zn622      Zn  0.14514654  0.35644520  0.44386735     1.49700
Zn623      Zn  0.15396126  0.39637802  0.48838210     1.49400
Zn624      Zn  0.10806677  0.40536270  0.44859980     1.49100
Zn625      Zn  0.10541188  0.35858275  0.48925501     1.49500
O626        O  0.12788264  0.37934215  0.46746873    -1.84000
O627        O  0.18322897  0.36314338  0.44307521    -0.74700
O628        O  0.14563215  0.43405500  0.49164914    -0.74500
O629        O  0.11518127  0.40251666  0.40999128    -0.74000
O630        O  0.18988701  0.39314972  0.47256831    -0.74700
O631        O  0.13434201  0.36409685  0.40855054    -0.74300
O632        O  0.11438321  0.44140061  0.46359502    -0.74900
O633        O  0.06771120  0.36591445  0.48117596    -0.74300
O634        O  0.14945609  0.38556992  0.02625189    -0.75000
O635        O  0.06995072  0.39864193  0.45357326    -0.74400
O636        O  0.10968466  0.36913153  0.02542702    -0.74900
O637        O  0.11280070  0.31992754  0.48523392    -0.74800
O638        O  0.13845555  0.31881015  0.45136565    -0.74600
C639        C  0.19812376  0.37887778  0.45445789     0.77200
C640        C  0.12940307  0.44914269  0.48130271     0.77700
C641        C  0.12436540  0.38344859  0.39740522     0.76700
C642        C  0.05680985  0.38264615  0.46690693     0.77000
C643        C  0.12900040  0.37775437  0.03773929     0.78200
C644        C  0.12585781  0.30712820  0.46887637     0.77200
Zn645      Zn  0.40001875  0.40243253  0.13364585     1.49700
Zn646      Zn  0.35925801  0.40692325  0.17794880     1.49400
Zn647      Zn  0.35244194  0.36256366  0.13526546     1.49100
Zn648      Zn  0.39846164  0.35888899  0.17589543     1.49500
O649        O  0.37725181  0.38244740  0.15571013    -1.84000
O650        O  0.39107844  0.43995450  0.13382421    -0.74700
O651        O  0.32150836  0.39885516  0.17806943    -0.74500
O652        O  0.35744575  0.37142731  0.09738335    -0.74000
O653        O  0.36316215  0.44450659  0.16581164    -0.74700
O654        O  0.39552673  0.39185459  0.09730926    -0.74300
O655        O  0.31523001  0.36873614  0.14847476    -0.74900
O656        O  0.39114564  0.32152072  0.16725176    -0.74300
O657        O  0.36908154  0.40098445  0.21489384    -0.75000
O658        O  0.35978315  0.32388254  0.13860440    -0.74400
O659        O  0.39098744  0.36407560  0.21316338    -0.74900
O660        O  0.43661473  0.36544050  0.17032662    -0.74800
O661        O  0.43725448  0.39859691  0.14342626    -0.74600
C662        C  0.37615393  0.45396235  0.14718247     0.77200
C663        C  0.30670880  0.38334861  0.16628914     0.77700
C664        C  0.37671773  0.38150076  0.08558269     0.76700
C665        C  0.37544675  0.31060974  0.15201464     0.77000
C666        C  0.37980635  0.38178293  0.22588139     0.78200
C667        C  0.44900797  0.38235571  0.15742373     0.77200
Zn668      Zn  0.35730645  0.35457181  0.42966581     1.49700
Zn669      Zn  0.39444011  0.40370995  0.42325816     1.49400
Zn670      Zn  0.39674380  0.35628593  0.38413623     1.49100
Zn671      Zn  0.34863078  0.39362714  0.38391861     1.49500
O672        O  0.37441299  0.37721631  0.40536042    -1.84000
O673        O  0.36922251  0.36234333  0.46505884    -0.74700
O674        O  0.43251492  0.39797661  0.41703501    -0.74500
O675        O  0.38995788  0.31823120  0.38879088    -0.74000
O676        O  0.38855182  0.40079160  0.46172664    -0.74700
O677        O  0.36304246  0.31690604  0.42191327    -0.74300
O678        O  0.43382428  0.36334636  0.39210579    -0.74900
O679        O  0.35144910  0.38162236  0.34721311    -0.74300
O680        O  0.38666123  0.43969732  0.40931198    -0.75000
O681        O  0.39104380  0.36475701  0.34734665    -0.74400
O682        O  0.35659455  0.43119408  0.38046320    -0.74900
O683        O  0.31275267  0.39054119  0.39992884    -0.74800
O684        O  0.31929060  0.36148189  0.43038972    -0.74600
C685        C  0.37965339  0.38209745  0.47518431     0.77200
C686        C  0.44517825  0.38097698  0.40472704     0.77700
C687        C  0.37633385  0.30554496  0.40481145     0.76700
C688        C  0.37151327  0.37346767  0.33552927     0.77000
C689        C  0.37181042  0.44695884  0.39131306     0.78200
C690        C  0.30442586  0.37693116  0.41863168     0.77200
Zn691      Zn  0.34465939  0.61134445  0.11218141     1.49700
Zn692      Zn  0.39548756  0.64591200  0.11155786     1.49400
Zn693      Zn  0.38957806  0.60030537  0.07091677     1.49100
Zn694      Zn  0.35513066  0.65037712  0.06700195     1.49500
O695        O  0.37138660  0.62678964  0.09049506    -1.84000
O696        O  0.34799625  0.62353733  0.14885993    -0.74700
O697        O  0.43209573  0.63633473  0.10278829    -0.74500
O698        O  0.38292789  0.56484519  0.08774315    -0.74000
O699        O  0.38873832  0.63772363  0.14855695    -0.74700
O700        O  0.35158944  0.57326505  0.11575433    -0.74300
O701        O  0.42853407  0.60712129  0.07207659    -0.74900
O702        O  0.36643867  0.64364873  0.03130196    -0.74300
O703        O  0.39188429  0.68465720  0.10625719    -0.75000
O704        O  0.37901322  0.60249501  0.03313844    -0.74400
O705        O  0.36227086  0.68725367  0.07586907    -0.74900
O706        O  0.31708634  0.64460075  0.06567156    -0.74800
O707        O  0.30862640  0.61662841  0.09691264    -0.74600
C708        C  0.36854159  0.63024494  0.16052428     0.77200
C709        C  0.44240382  0.62156565  0.08623468     0.77700
C710        C  0.36766381  0.55767224  0.10576079     0.76700
C711        C  0.37255337  0.62260057  0.02041285     0.77000
C712        C  0.37766942  0.69799490  0.09146135     0.78200
C713        C  0.30129890  0.63035965  0.07796693     0.77200
Zn714      Zn  0.39548869  0.60496112  0.36425632     1.49700
Zn715      Zn  0.34742097  0.64255533  0.35909691     1.49400
Zn716      Zn  0.39386757  0.64475707  0.31862698     1.49100
Zn717      Zn  0.35571052  0.59605025  0.31937856     1.49500
O718        O  0.37293539  0.62214489  0.34029414    -1.84000
O719        O  0.38812618  0.61610492  0.39984770    -0.74700
O720        O  0.35608146  0.68070700  0.35574282    -0.74500
O721        O  0.43201063  0.63773572  0.32274239    -0.74000
O722        O  0.34933848  0.63440301  0.39742873    -0.74700
O723        O  0.43287460  0.61133544  0.35633233    -0.74300
O724        O  0.38795592  0.68219941  0.32721806    -0.74900
O725        O  0.36503597  0.60099778  0.28179561    -0.74300
O726        O  0.31127290  0.63669658  0.34388237    -0.75000
O727        O  0.38456038  0.63951251  0.28197145    -0.74400
O728        O  0.31730128  0.60192528  0.32005388    -0.74900
O729        O  0.36218147  0.55943980  0.33265653    -0.74800
O730        O  0.38905545  0.56693554  0.36474366    -0.74600
C731        C  0.36821768  0.62564845  0.41048324     0.77200
C732        C  0.37239879  0.69348644  0.34239238     0.77700
C733        C  0.44437652  0.62453190  0.33915050     0.76700
C734        C  0.37421209  0.62074179  0.27012937     0.77000
C735        C  0.30250554  0.61942038  0.32877918     0.78200
C736        C  0.37544573  0.55150182  0.35158903     0.77200
C737        C  0.34728611  0.61358005  0.45222546    -0.01800
C738        C  0.36745549  0.62605781  0.43872936     0.07900
C739        C  0.38823246  0.63709337  0.45234217    -0.01900
C740        C  0.38913054  0.63514140  0.47910578    -0.01900
C741        C  0.36908584  0.62259244  0.49251803     0.08000
C742        C  0.34784085  0.61240437  0.47911540    -0.02100
Br743      Br  0.31915055  0.59759215  0.49760302    -0.00600
Br744      Br  0.31974717  0.59666634  0.43391809    -0.00700
Br745      Br  0.41621681  0.65650995  0.99586369    -0.00700
Br746      Br  0.41507661  0.65590053  0.43455080    -0.00600
C747        C  0.35343257  0.64280379  0.20434030    -0.01800
C748        C  0.36965116  0.62786572  0.18859990     0.07900
C749        C  0.38719736  0.61032334  0.19972769    -0.01900
C750        C  0.38820968  0.60743734  0.22642468    -0.01900
C751        C  0.37220619  0.62255346  0.24213211     0.08000
C752        C  0.35501138  0.64045327  0.23109025    -0.02100
Br753      Br  0.33367483  0.66184486  0.25269695    -0.00600
Br754      Br  0.32988870  0.66723368  0.18927829    -0.00700
Br755      Br  0.41212833  0.58343133  0.24159984    -0.00700
Br756      Br  0.40966978  0.58983796  0.17842111    -0.00600
C757        C  0.39747531  0.51031251  0.36400594    -0.01800
C758        C  0.37438045  0.52405087  0.35970116     0.07900
C759        C  0.35044393  0.51251190  0.36611346    -0.01900
C760        C  0.34964146  0.48761220  0.37710332    -0.01900
C761        C  0.37277726  0.47395175  0.38168223     0.08000
C762        C  0.39669271  0.48530614  0.37474401    -0.02100
Br763      Br  0.42846696  0.46614228  0.37835179    -0.00600
Br764      Br  0.43031351  0.52543197  0.35434057    -0.00700
Br765      Br  0.31669521  0.47285561  0.38703006    -0.00700
Br766      Br  0.31866355  0.53139043  0.36142573    -0.00600
C767        C  0.37097278  0.35563532  0.26555227    -0.01800
C768        C  0.37837667  0.37942219  0.25406745     0.07900
C769        C  0.38366942  0.40099617  0.26967384    -0.01900
C770        C  0.38058962  0.39910267  0.29632271    -0.01900
C771        C  0.37301899  0.37548942  0.30757659     0.08000
C772        C  0.36885983  0.35362988  0.29229574    -0.02100
Br773      Br  0.36044502  0.32093590  0.30824217    -0.00600
Br774      Br  0.36241042  0.32586093  0.24500989    -0.00700
Br775      Br  0.38768176  0.42863605  0.31769803    -0.00700
Br776      Br  0.39696464  0.43265518  0.25493156    -0.00600
C777        C  0.36976158  0.40370890  0.01699420    -0.01800
C778        C  0.38157566  0.38314609  0.00370223     0.07900
C779        C  0.39224169  0.36230323  0.01756217    -0.01900
C780        C  0.38993212  0.36140279  0.04435160    -0.01900
C781        C  0.37756351  0.38160637  0.05746890     0.08000
C782        C  0.36806689  0.40304232  0.04385270    -0.02100
Br783      Br  0.35278536  0.43150505  0.06220441    -0.00600
Br784      Br  0.35322334  0.43181880  0.49837393    -0.00700
Br785      Br  0.40377878  0.33256339  0.06326526    -0.00700
Br786      Br  0.41122441  0.33558406  0.99999153    -0.00600
C787        C  0.39543399  0.49728075  0.13696986    -0.01800
C788        C  0.37333536  0.48146160  0.13960449     0.07900
C789        C  0.34911994  0.49096512  0.13174499    -0.01900
C790        C  0.34723349  0.51567055  0.12037057    -0.01900
C791        C  0.36955609  0.53112448  0.11671040     0.08000
C792        C  0.39352156  0.52204110  0.12583525    -0.02100
Br793      Br  0.42356607  0.54414227  0.12494824    -0.00600
Br794      Br  0.42831067  0.48530658  0.14955591    -0.00700
Br795      Br  0.31404394  0.52772397  0.10896440    -0.00700
Br796      Br  0.31862950  0.46955765  0.13520354    -0.00600
C797        C  0.24584591  0.37898123  0.46315664    -0.01800
C798        C  0.22537285  0.38074049  0.44566228     0.07900
C799        C  0.23093175  0.38336499  0.41930355    -0.01900
C800        C  0.25662958  0.38223503  0.41031781    -0.01900
C801        C  0.27720263  0.37941760  0.42774694     0.08000
C802        C  0.27162313  0.37880924  0.45433904    -0.02100
Br803      Br  0.29905584  0.37905621  0.47931234    -0.00600
Br804      Br  0.23918353  0.37589260  0.00083985    -0.00700
Br805      Br  0.26301606  0.38332453  0.37391763    -0.00700
Br806      Br  0.20335736  0.38976310  0.39534407    -0.00600
C807        C  0.13975887  0.40053880  0.32833826    -0.01800
C808        C  0.13240667  0.37741617  0.31584033     0.07900
C809        C  0.12076306  0.35727996  0.33021201    -0.01900
C810        C  0.11627696  0.36032333  0.35653094    -0.01900
C811        C  0.12429847  0.38305251  0.36912107     0.08000
C812        C  0.13567847  0.40332027  0.35486496    -0.02100
Br813      Br  0.14646667  0.43468809  0.37169266    -0.00600
Br814      Br  0.15493938  0.42893329  0.30939444    -0.00700
Br815      Br  0.09808725  0.33347081  0.37523635    -0.00700
Br816      Br  0.11226498  0.32457501  0.31442417    -0.00600
C817        C  0.13220658  0.40328710  0.10584360    -0.01800
C818        C  0.12194143  0.38218355  0.11973672     0.07900
C819        C  0.11293156  0.36021345  0.10658957    -0.01900
C820        C  0.11623328  0.35830481  0.07999509    -0.01900
C821        C  0.12706642  0.37915466  0.06600084     0.08000
C822        C  0.13424833  0.40200057  0.07901496    -0.02100
Br823      Br  0.14565674  0.43221819  0.06025221    -0.00600
Br824      Br  0.14447683  0.43364905  0.12348945    -0.00700
Br825      Br  0.10724004  0.32624855  0.06330157    -0.00700
Br826      Br  0.09479120  0.33313684  0.12496876    -0.00600
C827        C  0.23303331  0.38612102  0.16738097    -0.01800
C828        C  0.22760942  0.38014881  0.19331469     0.07900
C829        C  0.24826612  0.37527706  0.21004826    -0.01900
C830        C  0.27395746  0.37587029  0.20094099    -0.01900
C831        C  0.27937201  0.38162101  0.17501776     0.08000
C832        C  0.25881387  0.38698231  0.15833614    -0.02100
Br833      Br  0.26611980  0.39705852  0.12350353    -0.00600
Br834      Br  0.20527132  0.39450288  0.14434248    -0.00700
Br835      Br  0.30178105  0.36767867  0.22402079    -0.00700
Br836      Br  0.24140880  0.36653095  0.24530628    -0.00600
C837        C  0.22892073  0.62880282  0.32826098    -0.01800
C838        C  0.22254702  0.62017884  0.30357436     0.07900
C839        C  0.24221253  0.61165278  0.28708621    -0.01900
C840        C  0.26821943  0.61181850  0.29506703    -0.01900
C841        C  0.27484668  0.61987395  0.32021838     0.08000
C842        C  0.25480007  0.62839283  0.33672116    -0.02100
Br843      Br  0.26196095  0.63834488  0.37150719    -0.00600
Br844      Br  0.20197574  0.64189417  0.35030743    -0.00700
Br845      Br  0.29430082  0.60191295  0.27037291    -0.00700
Br846      Br  0.23316167  0.59878540  0.25368788    -0.00600
C847        C  0.14235253  0.51861165  0.23707624    -0.01800
C848        C  0.12805586  0.52408487  0.25943797     0.07900
C849        C  0.11401531  0.50426019  0.27174841    -0.01900
C850        C  0.11442645  0.47897964  0.26184838    -0.01900
C851        C  0.12896804  0.47346705  0.23966342     0.08000
C852        C  0.14290513  0.49329030  0.22729323    -0.02100
Br853      Br  0.16271978  0.48555413  0.19699142    -0.00600
Br854      Br  0.16146054  0.54579928  0.22003578    -0.00700
Br855      Br  0.09466800  0.45193718  0.27838280    -0.00700
Br856      Br  0.09346151  0.51207570  0.30157049    -0.00600
C857        C  0.14308530  0.60486550  0.39474312    -0.01800
C858        C  0.12328002  0.61783419  0.38113184     0.07900
C859        C  0.10554232  0.63344946  0.39494511    -0.01900
C860        C  0.10858609  0.63717267  0.42135985    -0.01900
C861        C  0.12814405  0.62414029  0.43471387     0.08000
C862        C  0.14511449  0.60767644  0.42145413    -0.02100
Br863      Br  0.17025072  0.58781434  0.44024279    -0.00600
Br864      Br  0.16821457  0.58336971  0.37754874    -0.00700
Br865      Br  0.08616539  0.66085699  0.43937412    -0.00700
Br866      Br  0.07555797  0.64831607  0.37867206    -0.00600
C867        C  0.11539607  0.60170755  0.14503725    -0.01800
C868        C  0.12852856  0.62041454  0.13042630     0.07900
C869        C  0.14355500  0.63948131  0.14257830    -0.01900
C870        C  0.14427413  0.64082797  0.16941838    -0.01900
C871        C  0.13061611  0.62240849  0.18431429     0.08000
C872        C  0.11675926  0.60232658  0.17183261    -0.02100
Br873      Br  0.10006978  0.57469267  0.19081506    -0.00600
Br874      Br  0.09448989  0.57587661  0.12824093    -0.00700
Br875      Br  0.16281749  0.66896763  0.18518709    -0.00700
Br876      Br  0.16393983  0.66328735  0.12226235    -0.00600
C877        C  0.23530288  0.65041236  0.05306850    -0.01800
C878        C  0.22389750  0.62613060  0.04772605     0.07900
C879        C  0.23833439  0.60339595  0.05201555    -0.01900
C880        C  0.26342053  0.60483860  0.06220852    -0.01900
C881        C  0.27425918  0.62895363  0.06876545     0.08000
C882        C  0.26026124  0.65177905  0.06370647    -0.02100
Br883      Br  0.27487225  0.68509172  0.07217336    -0.00600
Br884      Br  0.21665666  0.68206494  0.04689755    -0.00700
Br885      Br  0.28369471  0.57375305  0.06516106    -0.00700
Br886      Br  0.22449359  0.57007884  0.04262469    -0.00600
C887        C  0.14918501  0.49224576  0.49151810    -0.01800
C888        C  0.12734983  0.47588377  0.49126822     0.07900
C889        C  0.10543868  0.48618136  0.00102449    -0.01900
C890        C  0.10421818  0.51131913  0.01130445    -0.01900
C891        C  0.12622418  0.52752445  0.01090697     0.08000
C892        C  0.14764090  0.51702969  0.50255789    -0.02100
Br893      Br  0.17724091  0.53963918  0.50116521    -0.00600
Br894      Br  0.18106541  0.48104156  0.47585595    -0.00700
Br895      Br  0.07247844  0.52323080  0.02661772    -0.00700
Br896      Br  0.07583140  0.46346870  0.00391034    -0.00600
C897        C  0.51462338  0.38460831  0.42777578    -0.01800
C898        C  0.52831032  0.37970578  0.40490858     0.07900
C899        C  0.51463715  0.37631325  0.38189450    -0.01900
C900        C  0.48754854  0.37806425  0.38172420    -0.01900
C901        C  0.47375990  0.38163590  0.40480104     0.08000
C902        C  0.48742905  0.38507051  0.42783238    -0.02100
Br903      Br  0.46918743  0.38927974  0.45985606    -0.00600
Br904      Br  0.53302055  0.39182691  0.45899440    -0.00700
Br905      Br  0.46961810  0.37706822  0.34940963    -0.00700
Br906      Br  0.53265119  0.36760374  0.35063260    -0.00600
C907        C  0.51822854  0.37853624  0.18168690    -0.01800
C908        C  0.53232463  0.38210334  0.15884001     0.07900
C909        C  0.51913158  0.38666162  0.13579341    -0.01900
C910        C  0.49198650  0.38636748  0.13528433    -0.01900
C911        C  0.47768602  0.38282570  0.15815351     0.08000
C912        C  0.49100846  0.37938436  0.18146357    -0.02100
Br913      Br  0.47234553  0.37675474  0.21343631    -0.00600
Br914      Br  0.53614610  0.37102298  0.21310361    -0.00700
Br915      Br  0.47486581  0.38898483  0.10262618    -0.00700
Br916      Br  0.53827167  0.39426463  0.10482291    -0.00600
C917        C  0.64387861  0.39315771  0.26871595    -0.01800
C918        C  0.63245220  0.37245677  0.25522648     0.07900
C919        C  0.62402616  0.35024840  0.26885646    -0.01900
C920        C  0.62594331  0.34934491  0.29567550    -0.01900
C921        C  0.63736533  0.36996599  0.30897937     0.08000
C922        C  0.64657919  0.39171222  0.29545183    -0.02100
Br923      Br  0.66247741  0.41978696  0.31390606    -0.00600
Br924      Br  0.65666245  0.42329898  0.25077465    -0.00700
Br925      Br  0.61166640  0.32046620  0.31446592    -0.00700
Br926      Br  0.60864053  0.32134092  0.25117872    -0.00600
C927        C  0.61760650  0.39616330  0.04719338    -0.01800
C928        C  0.63278071  0.37643716  0.05809483     0.07900
C929        C  0.64595853  0.35892006  0.04228343    -0.01900
C930        C  0.64381779  0.36095994  0.01559066    -0.01900
C931        C  0.62798287  0.38015963  0.00464605     0.08000
C932        C  0.61514847  0.39799661  0.02047812    -0.02100
Br933      Br  0.59188535  0.42419984  0.50663890    -0.00600
Br934      Br  0.60040893  0.42082653  0.06898739    -0.00700
Br935      Br  0.65921237  0.33591903  0.49352483    -0.00700
Br936      Br  0.66615960  0.33160821  0.05729020    -0.00600
C937        C  0.51407012  0.61465156  0.31896255    -0.01800
C938        C  0.52709742  0.62514096  0.34010948     0.07900
C939        C  0.51302919  0.63570405  0.36061035    -0.01900
C940        C  0.48593158  0.63586933  0.35994620    -0.01900
C941        C  0.47279999  0.62513832  0.33898147     0.08000
C942        C  0.48688299  0.61460770  0.31841299    -0.02100
Br943      Br  0.46896969  0.59910950  0.29010569    -0.00600
Br944      Br  0.53351894  0.59918905  0.29144016    -0.00700
Br945      Br  0.46682253  0.65189125  0.38729024    -0.00700
Br946      Br  0.53093814  0.65065068  0.38930285    -0.00600
C947        C  0.60288169  0.51116392  0.36557619    -0.01800
C948        C  0.62608273  0.52523292  0.36271990     0.07900
C949        C  0.64952166  0.51437995  0.37112670    -0.01900
C950        C  0.64983271  0.48928988  0.38164358    -0.01900
C951        C  0.62653666  0.47542691  0.38502308     0.08000
C952        C  0.60298958  0.48668714  0.37727529    -0.02100
Br953      Br  0.57049253  0.46916040  0.38357206    -0.00600
Br954      Br  0.57092138  0.52504919  0.35253039    -0.00700
Br955      Br  0.68241221  0.47354832  0.38993352    -0.00700
Br956      Br  0.68106292  0.53431085  0.36969593    -0.00600
C957        C  0.51214310  0.64540812  0.08652089    -0.01800
C958        C  0.52597576  0.62201659  0.08507877     0.07900
C959        C  0.51241553  0.59861284  0.08152829    -0.01900
C960        C  0.48516830  0.59835218  0.08084193    -0.01900
C961        C  0.47114843  0.62163729  0.08368031     0.08000
C962        C  0.48494295  0.64527773  0.08540565    -0.02100
Br963      Br  0.46687203  0.67794567  0.08480773    -0.00600
Br964      Br  0.53027574  0.67771474  0.09155168    -0.00700
Br965      Br  0.46762599  0.56569746  0.07663074    -0.00700
Br966      Br  0.53128352  0.56683456  0.07672862    -0.00600
C967        C  0.62333931  0.59597548  0.47874030    -0.01800
C968        C  0.63013505  0.61761185  0.49363667     0.07900
C969        C  0.64017101  0.63996409  0.48139583    -0.01900
C970        C  0.64226059  0.64117099  0.45463715    -0.01900
C971        C  0.63422123  0.62007597  0.43974582     0.08000
C972        C  0.62579550  0.59706338  0.45195296    -0.02100
Br973      Br  0.61881674  0.56637091  0.43211632    -0.00600
Br974      Br  0.60893642  0.56534220  0.49462300    -0.00700
Br975      Br  0.65551136  0.67220342  0.43859531    -0.00700
Br976      Br  0.65392619  0.66667479  0.00151135    -0.00600
C977        C  0.63835531  0.63995734  0.20445694    -0.01800
C978        C  0.62766120  0.61971119  0.18990928     0.07900
C979        C  0.61618655  0.59823486  0.20250686    -0.01900
C980        C  0.61390770  0.59790145  0.22928508    -0.01900
C981        C  0.62444198  0.61824582  0.24373009     0.08000
C982        C  0.63745621  0.63877073  0.23125999    -0.02100
Br983      Br  0.65569393  0.66451283  0.25084331    -0.00600
Br984      Br  0.65310261  0.67013338  0.18804109    -0.00700
Br985      Br  0.59534938  0.57005293  0.24598467    -0.00700
Br986      Br  0.60478620  0.56835484  0.18344317    -0.00600
C987        C  0.60774464  0.48249833  0.13327679    -0.01800
C988        C  0.63230411  0.47180324  0.13828858     0.07900
C989        C  0.65466677  0.48640134  0.13217168    -0.01900
C990        C  0.65253055  0.51111740  0.12077337    -0.01900
C991        C  0.62793284  0.52181666  0.11574853     0.08000
C992        C  0.60559996  0.50731927  0.12221617    -0.02100
Br993      Br  0.57173769  0.52066702  0.11453966    -0.00600
Br994      Br  0.57670101  0.46261864  0.13995236    -0.00700
Br995      Br  0.68359119  0.53058678  0.11315465    -0.00700
Br996      Br  0.68841415  0.47313957  0.14067363    -0.00600
C997        C  0.98465620  0.59951242  0.29658020    -0.01800
C998        C  0.97116366  0.61814084  0.28227942     0.07900
C999        C  0.98481833  0.63674421  0.26785658    -0.01900
C1000       C  0.01195371  0.63742034  0.26856265    -0.01900
C1001       C  0.02546615  0.61937068  0.28355972     0.08000
C1002       C  0.01186075  0.60003872  0.29709960    -0.02100
Br1003     Br  0.03060751  0.57393932  0.31562518    -0.00600
Br1004     Br  0.96580468  0.57306557  0.31492135    -0.00700
Br1005     Br  0.03074384  0.66250575  0.24831024    -0.00700
Br1006     Br  0.96622727  0.66069594  0.24646924    -0.00600
C1007       C  0.75928608  0.59722121  0.29949005    -0.01800
C1008       C  0.77332166  0.62049506  0.29694658     0.07900
C1009       C  0.76190287  0.64397654  0.30466860    -0.01900
C1010       C  0.73654159  0.64414746  0.31473507    -0.01900
C1011       C  0.72281111  0.62064647  0.31819913     0.08000
C1012       C  0.73454688  0.59715101  0.31064067    -0.02100
Br1013     Br  0.71778979  0.56417667  0.31662354    -0.00600
Br1014     Br  0.77367164  0.56513963  0.28699695    -0.00700
Br1015     Br  0.72057179  0.67692294  0.32255014    -0.00700
Br1016     Br  0.78143774  0.67584786  0.30295934    -0.00600
C1017       C  0.98549919  0.60296236  0.04415453    -0.01800
C1018       C  0.97084959  0.62501931  0.03736525     0.07900
C1019       C  0.98374464  0.64904840  0.03396046    -0.01900
C1020       C  0.01095131  0.65040072  0.03488139    -0.01900
C1021       C  0.02543069  0.62804092  0.04015666     0.08000
C1022       C  0.01259593  0.60464959  0.04575363    -0.02100
Br1023     Br  0.03236782  0.57492190  0.05628217    -0.00600
Br1024     Br  0.96922517  0.56980263  0.05031549    -0.00700
Br1025     Br  0.02847073  0.68265073  0.02758765    -0.00700
Br1026     Br  0.96442150  0.68065018  0.02946961    -0.00600
C1027       C  0.89097331  0.60526317  0.39332750    -0.01800
C1028       C  0.86996935  0.61356955  0.37861143     0.07900
C1029       C  0.84766387  0.62335781  0.39066376    -0.01900
C1030       C  0.84689621  0.62612423  0.41742047    -0.01900
C1031       C  0.86822355  0.61834445  0.43226814     0.08000
C1032       C  0.88993762  0.60711127  0.42011152    -0.02100
Br1033     Br  0.91776695  0.59273554  0.44000707    -0.00600
Br1034     Br  0.92107494  0.59118825  0.37657339    -0.00700
Br1035     Br  0.81720265  0.64196609  0.43334389    -0.00700
Br1036     Br  0.81837729  0.63349494  0.37029966    -0.00600
C1037       C  0.88830388  0.63859515  0.16842092    -0.01800
C1038       C  0.86993847  0.62345044  0.18169498     0.07900
C1039       C  0.85416273  0.60599794  0.16822913    -0.01900
C1040       C  0.85697094  0.60344685  0.14160861    -0.01900
C1041       C  0.87426354  0.61971146  0.12818844     0.08000
C1042       C  0.89004114  0.63718056  0.14165779    -0.02100
Br1043     Br  0.91504908  0.65815898  0.12347547    -0.00600
Br1044     Br  0.91119670  0.66116206  0.18694554    -0.00700
Br1045     Br  0.83750420  0.57735364  0.12370457    -0.00700
Br1046     Br  0.82900265  0.58529378  0.18636349    -0.00600
C1047       C  0.76897910  0.62591074  0.08027133    -0.01800
C1048       C  0.77455680  0.62488422  0.05370946     0.07900
C1049       C  0.75401101  0.62253520  0.03629788    -0.01900
C1050       C  0.72837750  0.62035275  0.04526197    -0.01900
C1051       C  0.72286350  0.62089729  0.07179413     0.08000
C1052       C  0.74329979  0.62383226  0.08920752    -0.02100
Br1053     Br  0.73640003  0.62338350  0.12553920    -0.00600
Br1054     Br  0.79626450  0.62927754  0.10507467    -0.00700
Br1055     Br  0.70086142  0.61772908  0.02063268    -0.00700
Br1056     Br  0.76058838  0.62424154  0.99993084    -0.00600
C1057       C  0.98666610  0.38764790  0.48824204    -0.01800
C1058       C  0.97348747  0.38606408  0.46474694     0.07900
C1059       C  0.98782998  0.38446058  0.44183420    -0.01900
C1060       C  0.01508162  0.38369751  0.44245622    -0.01900
C1061       C  0.02817627  0.38394195  0.46607884     0.08000
C1062       C  0.01381631  0.38619629  0.48895336    -0.02100
Br1063     Br  0.03094787  0.38245925  0.02122993    -0.00600
Br1064     Br  0.96745823  0.38711208  0.02001736    -0.00700
Br1065     Br  0.03431512  0.38091800  0.41085484    -0.00700
Br1066     Br  0.97026144  0.38168143  0.40965384    -0.00600
C1067       C  0.76092762  0.35386358  0.44826522    -0.01800
C1068       C  0.77529383  0.37656154  0.45320375     0.07900
C1069       C  0.76406291  0.40085242  0.44812342    -0.01900
C1070       C  0.73893283  0.40245393  0.43791809    -0.01900
C1071       C  0.72465469  0.37973203  0.43251904     0.08000
C1072       C  0.73565876  0.35541753  0.43839244    -0.02100
Br1073     Br  0.71563909  0.32398974  0.43483267    -0.00600
Br1074     Br  0.77560362  0.32037507  0.45559950    -0.00700
Br1075     Br  0.72488668  0.43610474  0.43041631    -0.00700
Br1076     Br  0.78382204  0.43215824  0.45315791    -0.00600
C1077       C  0.84872694  0.48542261  0.50528972    -0.01800
C1078       C  0.87071217  0.47456409  0.49303471     0.07900
C1079       C  0.89379320  0.48946814  0.49163611    -0.01900
C1080       C  0.89320209  0.51532454  0.00128864    -0.01900
C1081       C  0.87060409  0.52605523  0.01197019     0.08000
C1082       C  0.84764174  0.51133961  0.01261216    -0.02100
Br1083     Br  0.81691208  0.52529912  0.02854725    -0.00600
Br1084     Br  0.81601784  0.46730990  0.50683851    -0.00700
Br1085     Br  0.92418325  0.53609739  0.99818473    -0.00700
Br1086     Br  0.92550120  0.47498059  0.47828020    -0.00600
C1087       C  0.98858422  0.35572087  0.21278481    -0.01800
C1088       C  0.97499842  0.37840863  0.21910551     0.07900
C1089       C  0.98891830  0.40120050  0.22468146    -0.01900
C1090       C  0.01613547  0.40101454  0.22495476    -0.01900
C1091       C  0.02970230  0.37818862  0.21900838     0.08000
C1092       C  0.01579435  0.35556461  0.21286257    -0.02100
Br1093     Br  0.03389534  0.32454490  0.20339218    -0.00600
Br1094     Br  0.96994544  0.32533938  0.20202103    -0.00700
Br1095     Br  0.03475530  0.43171173  0.23513067    -0.00700
Br1096     Br  0.97091166  0.43270277  0.23253727    -0.00600
C1097       C  0.89081289  0.38978343  0.32893013    -0.01800
C1098       C  0.86921121  0.37811738  0.31710797     0.07900
C1099       C  0.84762498  0.37091183  0.33210876    -0.01900
C1100       C  0.84808866  0.37439249  0.35876174    -0.01900
C1101       C  0.87036992  0.38455684  0.37074580     0.08000
C1102       C  0.89119811  0.39336612  0.35555219    -0.02100
Br1103     Br  0.92061578  0.41012268  0.37085609    -0.00600
Br1104     Br  0.92014399  0.40129445  0.30884848    -0.00700
Br1105     Br  0.81740395  0.36647680  0.37861955    -0.00700
Br1106     Br  0.81798843  0.35457181  0.31658471    -0.00600
C1107       C  0.87095567  0.39892334  0.10736219    -0.01800
C1108       C  0.88206998  0.37817871  0.12094581     0.07900
C1109       C  0.89184546  0.35673273  0.10741151    -0.01900
C1110       C  0.88946035  0.35543435  0.08068466    -0.01900
C1111       C  0.87741620  0.37572456  0.06712323     0.08000
C1112       C  0.86899885  0.39787534  0.08054420    -0.02100
Br1113     Br  0.85623786  0.42770477  0.06225033    -0.00600
Br1114     Br  0.85697705  0.42828901  0.12539213    -0.00700
Br1115     Br  0.90218346  0.32521900  0.06310350    -0.00700
Br1116     Br  0.90924132  0.32918192  0.12543505    -0.00600
C1117       C  0.74883621  0.37218810  0.15890796    -0.01800
C1118       C  0.72787269  0.37117117  0.17612902     0.07900
C1119       C  0.73259651  0.37049533  0.20275121    -0.01900
C1120       C  0.75803530  0.36986031  0.21198411    -0.01900
C1121       C  0.77902613  0.37093826  0.19477579     0.08000
C1122       C  0.77431252  0.37258949  0.16818604    -0.02100
Br1123     Br  0.80256116  0.37660915  0.14415400    -0.00600
Br1124     Br  0.74284148  0.37153223  0.12253827    -0.00700
Br1125     Br  0.76386483  0.36604585  0.24824785    -0.00700
Br1126     Br  0.70435792  0.37146210  0.22708499    -0.00600
C1127       C  0.84895046  0.48758379  0.23346169    -0.01800
C1128       C  0.86994380  0.47119927  0.23883101     0.07900
C1129       C  0.88920397  0.47942816  0.25594801    -0.01900
C1130       C  0.88818768  0.50426052  0.26669206    -0.01900
C1131       C  0.86772386  0.52091990  0.26065728     0.08000
C1132       C  0.84782583  0.51241889  0.24441063    -0.02100
Br1133     Br  0.81928857  0.53495254  0.23692017    -0.00600
Br1134     Br  0.82211641  0.47616198  0.21066090    -0.00700
Br1135     Br  0.91440060  0.51539330  0.29037279    -0.00700
Br1136     Br  0.91621790  0.45618972  0.26595010    -0.00600
C1137       C  0.14926078  0.23720845  0.46215780    -0.01800
C1138       C  0.12734928  0.22315146  0.47022625     0.07900
C1139       C  0.10539462  0.23651464  0.47898749    -0.01900
C1140       C  0.10460500  0.26376996  0.47824246    -0.01900
C1141       C  0.12654604  0.27816102  0.47003189     0.08000
C1142       C  0.14913653  0.26449745  0.46250072    -0.02100
Br1143     Br  0.18073424  0.28250541  0.45348590    -0.00600
Br1144     Br  0.17928086  0.21890947  0.44970915    -0.00700
Br1145     Br  0.07404410  0.28067696  0.99193351    -0.00700
Br1146     Br  0.08021426  0.21757933  0.99905458    -0.00600
C1147       C  0.10848126  0.23634744  0.20761097    -0.01800
C1148       C  0.12668234  0.22254205  0.22204295     0.07900
C1149       C  0.14598854  0.23594791  0.23557084    -0.01900
C1150       C  0.14687960  0.26319980  0.23483624    -0.01900
C1151       C  0.12873761  0.27697134  0.22020741     0.08000
C1152       C  0.10975517  0.26347223  0.20639412    -0.02100
Br1153     Br  0.08610148  0.28216231  0.18499290    -0.00600
Br1154     Br  0.08204963  0.21792781  0.18916167    -0.00700
Br1155     Br  0.17315743  0.28170602  0.25335208    -0.00700
Br1156     Br  0.17125867  0.21687470  0.25481511    -0.00600
C1157       C  0.11611372  0.10170254  0.32753387    -0.01800
C1158       C  0.13044410  0.12181535  0.31592221     0.07900
C1159       C  0.14123858  0.14149572  0.33090660    -0.01900
C1160       C  0.13755738  0.14130636  0.35753459    -0.01900
C1161       C  0.12378986  0.12079747  0.36937615     0.08000
C1162       C  0.11296647  0.10104773  0.35425505    -0.02100
Br1163     Br  0.09219744  0.07418600  0.36987590    -0.00600
Br1164     Br  0.10049682  0.07525950  0.30662985    -0.00700
Br1165     Br  0.15147662  0.16937289  0.37752289    -0.00700
Br1166     Br  0.16064076  0.16896163  0.31468225    -0.00600
C1167       C  0.12146235  0.14763941  0.08009618    -0.01800
C1168       C  0.13115422  0.12683199  0.06582655     0.07900
C1169       C  0.13793169  0.10365210  0.07826631    -0.01900
C1170       C  0.13512263  0.10128567  0.10499347    -0.01900
C1171       C  0.12524967  0.12211307  0.11943339     0.08000
C1172       C  0.11838007  0.14531591  0.10675231    -0.02100
Br1173     Br  0.10339274  0.17368958  0.12554256    -0.00600
Br1174     Br  0.11207603  0.17922592  0.06280177    -0.00700
Br1175     Br  0.14587735  0.06983331  0.12167588    -0.00700
Br1176     Br  0.15096205  0.07508329  0.05840408    -0.00600
C1177       C  0.35212426  0.26358502  0.40306522    -0.01800
C1178       C  0.37592398  0.27698059  0.40355755     0.07900
C1179       C  0.39929004  0.26297696  0.40307658    -0.01900
C1180       C  0.39884346  0.23575733  0.40274724    -0.01900
C1181       C  0.37501546  0.22235035  0.40290146     0.08000
C1182       C  0.35166845  0.23638205  0.40275037    -0.02100
Br1183     Br  0.31889988  0.21844651  0.40092141    -0.00600
Br1184     Br  0.31999461  0.28244131  0.40156833    -0.00700
Br1185     Br  0.43106291  0.21699690  0.40371861    -0.00700
Br1186     Br  0.43208540  0.28091105  0.40445387    -0.00600
C1187       C  0.26797288  0.11779735  0.45489777    -0.01800
C1188       C  0.27382318  0.12129452  0.42865316     0.07900
C1189       C  0.25350337  0.12357966  0.41103609    -0.01900
C1190       C  0.22761795  0.12218210  0.41948349    -0.01900
C1191       C  0.22171518  0.11976781  0.44583619     0.08000
C1192       C  0.24205671  0.11734705  0.46344897    -0.02100
Br1193     Br  0.23473861  0.10836623  0.99736446    -0.00600
Br1194     Br  0.29537223  0.11221928  0.47920675    -0.00700
Br1195     Br  0.20040778  0.12410565  0.39458213    -0.00700
Br1196     Br  0.26106463  0.13049824  0.37547073    -0.00600
C1197       C  0.39896464  0.24082189  0.14769073    -0.01800
C1198       C  0.37550796  0.22676487  0.14987845     0.07900
C1199       C  0.35195481  0.24054628  0.15114015    -0.01900
C1200       C  0.35191865  0.26782909  0.15176650    -0.01900
C1201       C  0.37535995  0.28183227  0.15014938     0.08000
C1202       C  0.39882529  0.26814255  0.14750581    -0.02100
Br1203     Br  0.43098114  0.28675579  0.14275518    -0.00600
Br1204     Br  0.43173917  0.22304359  0.14630359    -0.00700
Br1205     Br  0.31959340  0.28580290  0.15655970    -0.00700
Br1206     Br  0.31931712  0.22225956  0.15084799    -0.00600
C1207       C  0.34897168  0.13657931  0.29415500    -0.01800
C1208       C  0.36763556  0.12338025  0.30849794     0.07900
C1209       C  0.38740833  0.10961033  0.29596748    -0.01900
C1210       C  0.38916119  0.10976176  0.26915385    -0.01900
C1211       C  0.37075080  0.12340335  0.25452386     0.08000
C1212       C  0.35048999  0.13675584  0.26729607    -0.02100
Br1213     Br  0.32415098  0.15527548  0.24868902    -0.00600
Br1214     Br  0.32175087  0.15522752  0.31146463    -0.00700
Br1215     Br  0.41801766  0.09247394  0.25308544    -0.00700
Br1216     Br  0.41164601  0.08951871  0.31563345    -0.00600
C1217       C  0.38508697  0.14305968  0.01651249    -0.01800
C1218       C  0.37854717  0.11957670  0.00431688     0.07900
C1219       C  0.37092457  0.09803714  0.01921798    -0.01900
C1220       C  0.36950581  0.10014885  0.04600010    -0.01900
C1221       C  0.37434721  0.12413390  0.05792537     0.08000
C1222       C  0.38223803  0.14553738  0.04308843    -0.02100
Br1223     Br  0.38776272  0.17881310  0.05889812    -0.00600
Br1224     Br  0.39979615  0.17253956  0.49742019    -0.00700
Br1225     Br  0.36217049  0.06971918  0.06633984    -0.00700
Br1226     Br  0.35718193  0.06845950  0.50285006    -0.00600
C1227       C  0.25558883  0.12752401  0.15955954    -0.01800
C1228       C  0.27612195  0.12126301  0.17579417     0.07900
C1229       C  0.27091123  0.11202541  0.20065346    -0.01900
C1230       C  0.24547628  0.11199290  0.21041491    -0.01900
C1231       C  0.22473470  0.11972652  0.19465509     0.08000
C1232       C  0.22995960  0.12604114  0.16861679    -0.02100
Br1233     Br  0.20240778  0.13127967  0.14426817    -0.00600
Br1234     Br  0.26269813  0.13882411  0.12500935    -0.00700
Br1235     Br  0.23994704  0.10234910  0.24569554    -0.00700
Br1236     Br  0.29862409  0.09768601  0.22069451    -0.00600
C1237       C  0.35057047  0.76363044  0.34328842    -0.01800
C1238       C  0.37439579  0.77692126  0.34488294     0.07900
C1239       C  0.39754925  0.76268707  0.34662340    -0.01900
C1240       C  0.39685133  0.73541697  0.34672628    -0.01900
C1241       C  0.37306317  0.72213775  0.34416815     0.08000
C1242       C  0.34992698  0.73642848  0.34250283    -0.02100
Br1243     Br  0.31724196  0.71903038  0.33743146    -0.00600
Br1244     Br  0.31846608  0.78261285  0.34289111    -0.00700
Br1245     Br  0.42858311  0.71640522  0.35133015    -0.00700
Br1246     Br  0.43048408  0.78038801  0.34712572    -0.00600
C1247       C  0.34635078  0.98816242  0.36696218    -0.01800
C1248       C  0.36985553  0.97516930  0.36231160     0.07900
C1249       C  0.39334420  0.98713344  0.36949831    -0.01900
C1250       C  0.39325934  0.01183311  0.38102121    -0.01900
C1251       C  0.36962854  0.02460994  0.38605922     0.08000
C1252       C  0.34617818  0.01227251  0.37937602    -0.02100
Br1253     Br  0.31332442  0.02757322  0.38838129    -0.00600
Br1254     Br  0.31411238  0.97366133  0.35503714    -0.00700
Br1255     Br  0.42583500  0.02830867  0.38885652    -0.00700
Br1256     Br  0.42583166  0.96948429  0.36453505    -0.00600
C1257       C  0.37901283  0.76768680  0.06875190    -0.01800
C1258       C  0.37642202  0.78136387  0.09196808     0.07900
C1259       C  0.37570601  0.76744381  0.11525004    -0.01900
C1260       C  0.37702254  0.74020374  0.11527446    -0.01900
C1261       C  0.37889267  0.72662375  0.09199304     0.08000
C1262       C  0.38053338  0.74054459  0.06880586    -0.02100
Br1263     Br  0.38614507  0.72257256  0.03689268    -0.00600
Br1264     Br  0.37902796  0.78569302  0.03636464    -0.00700
Br1265     Br  0.37538567  0.72163590  0.14733606    -0.00700
Br1266     Br  0.37366701  0.78546605  0.14737771    -0.00600
C1267       C  0.38243390  0.90262447  0.47708414    -0.01800
C1268       C  0.37214600  0.88299795  0.49293155     0.07900
C1269       C  0.35866016  0.86203475  0.48180592    -0.01900
C1270       C  0.35609375  0.86043557  0.45510513    -0.01900
C1271       C  0.36710665  0.87958405  0.43936517     0.08000
C1272       C  0.37989311  0.90090501  0.45035743    -0.02100
Br1273     Br  0.39386568  0.92780037  0.42862888    -0.00600
Br1274     Br  0.40130195  0.93109433  0.49181836    -0.00700
Br1275     Br  0.33765253  0.83195203  0.43985644    -0.00700
Br1276     Br  0.34171340  0.83667537  0.00401890    -0.00600
C1277       C  0.35910003  0.89619162  0.20278558    -0.01800
C1278       C  0.37201750  0.87625182  0.18967666     0.07900
C1279       C  0.38845661  0.85946943  0.20317617    -0.01900
C1280       C  0.39082529  0.86166835  0.22983200    -0.01900
C1281       C  0.37763947  0.88139396  0.24302689     0.08000
C1282       C  0.36214909  0.89897054  0.22937198    -0.02100
Br1283     Br  0.34482723  0.92662729  0.24708644    -0.00600
Br1284     Br  0.33808485  0.92033710  0.18401263    -0.00700
Br1285     Br  0.41286701  0.83813283  0.24827578    -0.00700
Br1286     Br  0.40827825  0.83385529  0.18504833    -0.00600
C1287       C  0.39793330  0.99282707  0.11845145    -0.01800
C1288       C  0.37506736  0.97853452  0.11414136     0.07900
C1289       C  0.35103939  0.98899186  0.12158973    -0.01900
C1290       C  0.34986886  0.01365995  0.13289767    -0.01900
C1291       C  0.37266495  0.02824170  0.13660672     0.08000
C1292       C  0.39673501  0.01765411  0.12941355    -0.02100
Br1293     Br  0.42811614  0.03761103  0.13315214    -0.00600
Br1294     Br  0.43102490  0.97875224  0.10854104    -0.00700
Br1295     Br  0.31703808  0.02688621  0.14463050    -0.00700
Br1296     Br  0.31974794  0.96891623  0.11782401    -0.00600
C1297       C  0.12206271  0.76073773  0.25555473    -0.01800
C1298       C  0.12094940  0.77481056  0.27868156     0.07900
C1299       C  0.12014674  0.76108587  0.30207575    -0.01900
C1300       C  0.12264280  0.73401482  0.30250328    -0.01900
C1301       C  0.12411272  0.71998661  0.27945509     0.08000
C1302       C  0.12313010  0.73344070  0.25598276    -0.02100
Br1303     Br  0.12173639  0.71446764  0.22433715    -0.00600
Br1304     Br  0.12284583  0.77844854  0.22308758    -0.00700
Br1305     Br  0.12537455  0.71646244  0.33506099    -0.00700
Br1306     Br  0.11355731  0.77894400  0.33379255    -0.00600
C1307       C  0.10308879  0.98608275  0.25399688    -0.01800
C1308       C  0.12603193  0.97441936  0.26287196     0.07900
C1309       C  0.14959425  0.98804557  0.26043358    -0.01900
C1310       C  0.15057585  0.01215548  0.24786809    -0.01900
C1311       C  0.12760563  0.02424001  0.23941924     0.08000
C1312       C  0.10375741  0.01114646  0.24303328    -0.02100
Br1313     Br  0.07163121  0.02780142  0.23436542    -0.00600
Br1314     Br  0.07075428  0.96739646  0.25569669    -0.00700
Br1315     Br  0.18403071  0.02761799  0.24108222    -0.00700
Br1316     Br  0.18064483  0.97428723  0.27564826    -0.00600
C1317       C  0.24347507  0.87435889  0.28376959    -0.01800
C1318       C  0.22301519  0.87519911  0.30159051     0.07900
C1319       C  0.22862382  0.87632002  0.32798783    -0.01900
C1320       C  0.25438207  0.87594817  0.33650684    -0.01900
C1321       C  0.27493167  0.87535384  0.31871471     0.08000
C1322       C  0.26929830  0.87479809  0.29222024    -0.02100
Br1323     Br  0.29671252  0.87545701  0.26698577    -0.00600
Br1324     Br  0.23622283  0.87105095  0.24776313    -0.00700
Br1325     Br  0.26117112  0.87448284  0.37273797    -0.00700
Br1326     Br  0.20107065  0.87928315  0.35285234    -0.00600
C1327       C  0.11582969  0.73895392  0.01304029    -0.01800
C1328       C  0.13005121  0.72536874  0.03154315     0.07900
C1329       C  0.14441346  0.73910981  0.04983605    -0.01900
C1330       C  0.14489290  0.76632740  0.04934256    -0.01900
C1331       C  0.13011691  0.77994809  0.03127918     0.08000
C1332       C  0.11542175  0.76618635  0.01326400    -0.02100
Br1333     Br  0.09410689  0.78463756  0.98946498    -0.00600
Br1334     Br  0.09651423  0.72014459  0.98775266    -0.00700
Br1335     Br  0.16599875  0.78499358  0.07324681    -0.00700
Br1336     Br  0.16334368  0.72062974  0.07563425    -0.00600
C1337       C  0.14201010  0.89720906  0.41921727    -0.01800
C1338       C  0.13198940  0.87610383  0.43321921     0.07900
C1339       C  0.11777301  0.85675515  0.42065009    -0.01900
C1340       C  0.11392202  0.85824480  0.39411140    -0.01900
C1341       C  0.12428983  0.87912494  0.37992183     0.08000
C1342       C  0.13805432  0.89883707  0.39263205    -0.02100
Br1343     Br  0.15178989  0.92793240  0.37373202    -0.00600
Br1344     Br  0.16083434  0.92403706  0.43670212    -0.00700
Br1345     Br  0.09291611  0.83250679  0.37745058    -0.00700
Br1346     Br  0.10319636  0.82838570  0.44004148    -0.00600
C1347       C  0.11960389  0.90127067  0.17218657    -0.01800
C1348       C  0.13009426  0.87907666  0.18378510     0.07900
C1349       C  0.13976354  0.85892319  0.16872840    -0.01900
C1350       C  0.13776457  0.86020499  0.14203252    -0.01900
C1351       C  0.12687776  0.88221259  0.13018612     0.08000
C1352       C  0.11819035  0.90297538  0.14537483    -0.02100
Br1353     Br  0.10310462  0.93313969  0.12969786    -0.00600
Br1354     Br  0.10706555  0.92921441  0.19318807    -0.00700
Br1355     Br  0.15071278  0.83182471  0.12199284    -0.00700
Br1356     Br  0.15637758  0.82988725  0.18488695    -0.00600
C1357       C  0.15034985  0.98890914  0.00199627    -0.01800
C1358       C  0.12803443  0.97765014  0.01296896     0.07900
C1359       C  0.10488141  0.99166547  0.01366193    -0.01900
C1360       C  0.10287223  0.01494500  0.50240093    -0.01900
C1361       C  0.12517891  0.02682113  0.49186172     0.08000
C1362       C  0.14921698  0.01393348  0.49363879    -0.02100
Br1363     Br  0.18078331  0.03093149  0.48297543    -0.00600
Br1364     Br  0.18238534  0.96992281  0.00162511    -0.00700
Br1365     Br  0.06920945  0.03050406  0.49915379    -0.00700
Br1366     Br  0.07557533  0.97794601  0.03225750    -0.00600
C1367       C  0.27199234  0.88433928  0.04459267    -0.01800
C1368       C  0.27758156  0.88192778  0.07102382     0.07900
C1369       C  0.25693717  0.87889340  0.08849344    -0.01900
C1370       C  0.23117827  0.87847935  0.07973030    -0.01900
C1371       C  0.22569911  0.88040523  0.05330645     0.08000
C1372       C  0.24627165  0.88320390  0.03583016    -0.02100
Br1373     Br  0.23911273  0.88716158  0.99985860    -0.00600
Br1374     Br  0.29931521  0.88920257  0.01977612    -0.00700
Br1375     Br  0.20342259  0.87519329  0.10430200    -0.00700
Br1376     Br  0.26366224  0.87705762  0.12471555    -0.00600
C1377       C  0.51286744  0.11653068  0.38564153    -0.01800
C1378       C  0.52584443  0.12045525  0.40896031     0.07900
C1379       C  0.51135990  0.12404397  0.43157069    -0.01900
C1380       C  0.48412688  0.12342733  0.43089336    -0.01900
C1381       C  0.47124564  0.11943147  0.40755101     0.08000
C1382       C  0.48572074  0.11608692  0.38494276    -0.02100
Br1383     Br  0.46843669  0.10991149  0.35297397    -0.00600
Br1384     Br  0.53215064  0.11081111  0.35452938    -0.00700
Br1385     Br  0.46445408  0.12968348  0.46169915    -0.00700
Br1386     Br  0.52868169  0.13172510  0.46313510    -0.00600
C1387       C  0.61595119  0.26477047  0.42852644    -0.01800
C1388       C  0.62761551  0.27842703  0.40784621     0.07900
C1389       C  0.63723005  0.26422440  0.38667602    -0.01900
C1390       C  0.63528819  0.23704839  0.38637633    -0.01900
C1391       C  0.62299598  0.22386994  0.40659460     0.08000
C1392       C  0.61301442  0.23775260  0.42742908    -0.02100
Br1393     Br  0.59452699  0.21955370  0.45423132    -0.00600
Br1394     Br  0.60553712  0.28210391  0.45962581    -0.00700
Br1395     Br  0.65052656  0.21757508  0.35874470    -0.00700
Br1396     Br  0.65259504  0.28126302  0.35739798    -0.00600
C1397       C  0.51300798  0.12194688  0.18353646    -0.01800
C1398       C  0.52660330  0.11716780  0.16055677     0.07900
C1399       C  0.51259415  0.11333239  0.13777913    -0.01900
C1400       C  0.48545167  0.11428552  0.13792189    -0.01900
C1401       C  0.47194893  0.11973471  0.16070135     0.08000
C1402       C  0.48576281  0.12339809  0.18354954    -0.02100
Br1403     Br  0.46745242  0.13197328  0.21453904    -0.00600
Br1404     Br  0.53161792  0.12818060  0.21475370    -0.00700
Br1405     Br  0.46666180  0.10680880  0.10693622    -0.00700
Br1406     Br  0.53026241  0.10588350  0.10618927    -0.00600
C1407       C  0.64542852  0.23237982  0.14099979    -0.01800
C1408       C  0.62324641  0.21885038  0.14931159     0.07900
C1409       C  0.60097265  0.23262054  0.15669140    -0.01900
C1410       C  0.60129319  0.25986127  0.15683174    -0.01900
C1411       C  0.62384325  0.27337916  0.14945768     0.08000
C1412       C  0.64578470  0.25959079  0.14119697    -0.02100
Br1413     Br  0.67626127  0.27806014  0.12989373    -0.00600
Br1414     Br  0.67502624  0.21353617  0.12862684    -0.00700
Br1415     Br  0.57147546  0.27864211  0.16882391    -0.00700
Br1416     Br  0.57047228  0.21412141  0.16788503    -0.00600
C1417       C  0.60908643  0.10551786  0.27196210    -0.01800
C1418       C  0.62695198  0.11917850  0.25633783     0.07900
C1419       C  0.64682163  0.13390609  0.26818209    -0.01900
C1420       C  0.64741660  0.13653145  0.29492188    -0.01900
C1421       C  0.62938953  0.12321853  0.31021101     0.08000
C1422       C  0.61083182  0.10705431  0.29875105    -0.02100
Br1423     Br  0.58857147  0.08587946  0.31996393    -0.00600
Br1424     Br  0.58134365  0.08540040  0.25737042    -0.00700
Br1425     Br  0.67236279  0.15920973  0.31070599    -0.00700
Br1426     Br  0.67467586  0.14937689  0.24851088    -0.00600
C1427       C  0.60661482  0.10209879  0.02176138    -0.01800
C1428       C  0.62673521  0.11223022  0.00649610     0.07900
C1429       C  0.64967548  0.12122709  0.01822050    -0.01900
C1430       C  0.65138370  0.12242461  0.04498537    -0.01900
C1431       C  0.63070502  0.11344271  0.06019283     0.08000
C1432       C  0.60900810  0.10200215  0.04847611    -0.02100
Br1433     Br  0.58317516  0.08469244  0.06892457    -0.00600
Br1434     Br  0.57500884  0.08982263  0.00652254    -0.00700
Br1435     Br  0.68158302  0.13753990  0.06060994    -0.00700
Br1436     Br  0.68094898  0.13125950  0.49824746    -0.00600
C1437       C  0.98321388  0.09834945  0.46393157    -0.01800
C1438       C  0.96875909  0.12136013  0.46645160     0.07900
C1439       C  0.98186644  0.14543229  0.46643929    -0.01900
C1440       C  0.00904672  0.14637240  0.46511813    -0.01900
C1441       C  0.02351482  0.12334470  0.46389215     0.08000
C1442       C  0.01041378  0.09943380  0.46232871    -0.02100
Br1443     Br  0.02967165  0.06819618  0.45627171    -0.00600
Br1444     Br  0.96621501  0.06501892  0.46416577    -0.00700
Br1445     Br  0.02626950  0.17946982  0.46561000    -0.00700
Br1446     Br  0.96280915  0.17755427  0.46748942    -0.00600
C1447       C  0.88814722  0.23655631  0.45154969    -0.01800
C1448       C  0.87774117  0.22371227  0.47308027     0.07900
C1449       C  0.86835453  0.23810758  0.49392263    -0.01900
C1450       C  0.86843022  0.26529437  0.49278309    -0.01900
C1451       C  0.87852950  0.27811272  0.47111834     0.08000
C1452       C  0.88865699  0.26372407  0.45062884    -0.02100
Br1453     Br  0.90372001  0.28130524  0.42154918    -0.00600
Br1454     Br  0.90248854  0.21689231  0.42364714    -0.00700
Br1455     Br  0.85308528  0.28496410  0.52010176    -0.00700
Br1456     Br  0.85436422  0.22058335  0.52353030    -0.00600
C1457       C  0.75738490  0.10486443  0.45217334    -0.01800
C1458       C  0.77168048  0.12828593  0.45261502     0.07900
C1459       C  0.76066855  0.15087419  0.44189212    -0.01900
C1460       C  0.73642343  0.14974986  0.42992251    -0.01900
C1461       C  0.72230743  0.12644812  0.42953684     0.08000
C1462       C  0.73258560  0.10417502  0.44116347    -0.02100
Br1463     Br  0.71196604  0.07305625  0.44341543    -0.00600
Br1464     Br  0.77171938  0.07315047  0.46547939    -0.00700
Br1465     Br  0.72259663  0.18018228  0.41347025    -0.00700
Br1466     Br  0.77781730  0.18402515  0.44467322    -0.00600
C1467       C  0.01488315  0.11752051  0.24291939    -0.01800
C1468       C  0.02811564  0.11889602  0.21931190     0.07900
C1469       C  0.01395363  0.12126784  0.19652378    -0.01900
C1470       C  0.98672475  0.12230765  0.19729263    -0.01900
C1471       C  0.97335605  0.12112315  0.22096917     0.08000
C1472       C  0.98772897  0.11906755  0.24381616    -0.02100
Br1473     Br  0.97071990  0.12017861  0.27679121    -0.00600
Br1474     Br  0.03390952  0.11238010  0.27421796    -0.00700
Br1475     Br  0.96814890  0.12475626  0.16551485    -0.00700
Br1476     Br  0.03191749  0.12421321  0.16417880    -0.00600
C1477       C  0.89638137  0.23177014  0.23201015    -0.01800
C1478       C  0.87212678  0.21932272  0.22986222     0.07900
C1479       C  0.84952793  0.23451171  0.22872688    -0.01900
C1480       C  0.85135632  0.26165776  0.22709561    -0.01900
C1481       C  0.87575759  0.27397056  0.22735597     0.08000
C1482       C  0.89817275  0.25894135  0.23084744    -0.02100
Br1483     Br  0.93163940  0.27523698  0.23301817    -0.00600
Br1484     Br  0.92726042  0.21170384  0.23785655    -0.00700
Br1485     Br  0.82011935  0.28200357  0.22533617    -0.00700
Br1486     Br  0.81585000  0.21857845  0.22902255    -0.00600
C1487       C  0.85304513  0.10266427  0.36158064    -0.01800
C1488       C  0.87079392  0.11861977  0.37452758     0.07900
C1489       C  0.88629389  0.13621163  0.36057202    -0.01900
C1490       C  0.88451374  0.13743024  0.33381732    -0.01900
C1491       C  0.86720273  0.12111416  0.32081599     0.08000
C1492       C  0.85139859  0.10377296  0.33471943    -0.02100
Br1493     Br  0.82805494  0.08109183  0.31688274    -0.00600
Br1494     Br  0.83001166  0.08040008  0.38073757    -0.00700
Br1495     Br  0.90536173  0.16198913  0.31488121    -0.00700
Br1496     Br  0.91029409  0.15851081  0.37811905    -0.00600
C1497       C  0.89283326  0.10891747  0.10899462    -0.01800
C1498       C  0.87449005  0.12076485  0.12492774     0.07900
C1499       C  0.85385890  0.13476021  0.11426104    -0.01900
C1500       C  0.85147285  0.13683318  0.08760040    -0.01900
C1501       C  0.87001885  0.12526369  0.07158876     0.08000
C1502       C  0.89087430  0.11148588  0.08234449    -0.02100
Br1503     Br  0.91660315  0.09557585  0.06066783    -0.00600
Br1504     Br  0.92055384  0.08918599  0.12376769    -0.00700
Br1505     Br  0.82353384  0.15650725  0.07309166    -0.00700
Br1506     Br  0.82870901  0.15086686  0.13632388    -0.00600
C1507       C  0.76480242  0.14214360  0.19058279    -0.01800
C1508       C  0.77548540  0.11872231  0.19947131     0.07900
C1509       C  0.76091984  0.09569812  0.19718037    -0.01900
C1510       C  0.73569753  0.09631284  0.18713079    -0.01900
C1511       C  0.72477497  0.11986506  0.17892135     0.08000
C1512       C  0.73956790  0.14275372  0.18055032    -0.02100
Br1513     Br  0.72578849  0.17487047  0.16771490    -0.00600
Br1514     Br  0.78542515  0.17313297  0.18991181    -0.00700
Br1515     Br  0.71570746  0.06489233  0.18605199    -0.00700
Br1516     Br  0.77515320  0.06313260  0.20831747    -0.00600
C1517       C  0.87689090  0.75906621  0.25748391    -0.01800
C1518       C  0.87423678  0.77302826  0.28055372     0.07900
C1519       C  0.87117583  0.75926118  0.30384397    -0.01900
C1520       C  0.86972108  0.73207539  0.30386412    -0.01900
C1521       C  0.87248979  0.71827387  0.28086080     0.08000
C1522       C  0.87634239  0.73183573  0.25775187    -0.02100
Br1523     Br  0.88179285  0.71308435  0.22639017    -0.00600
Br1524     Br  0.88013130  0.77678765  0.22504904    -0.00700
Br1525     Br  0.86242056  0.71380207  0.33538998    -0.00700
Br1526     Br  0.87038186  0.77713389  0.33624819    -0.00600
C1527       C  0.98417327  0.86919901  0.30416028    -0.01800
C1528       C  0.97086242  0.87789369  0.28233884     0.07900
C1529       C  0.98502481  0.88671971  0.26094551    -0.01900
C1530       C  0.01217297  0.88635213  0.26100736    -0.01900
C1531       C  0.02547976  0.87782761  0.28281360     0.08000
C1532       C  0.01145686  0.86931903  0.30445875    -0.02100
Br1533     Br  0.02966380  0.85646453  0.33389101    -0.00600
Br1534     Br  0.96504898  0.85596106  0.33310291    -0.00700
Br1535     Br  0.03120785  0.89809348  0.23126147    -0.00700
Br1536     Br  0.96735603  0.90056514  0.23186729    -0.00600
C1537       C  0.84780839  0.98632389  0.26088356    -0.01800
C1538       C  0.86962605  0.97025816  0.25844806     0.07900
C1539       C  0.89207121  0.97968432  0.24609545    -0.01900
C1540       C  0.89292567  0.00524540  0.23684395    -0.01900
C1541       C  0.87121524  0.02134744  0.23949797     0.08000
C1542       C  0.84864486  0.01184747  0.25149618    -0.02100
Br1543     Br  0.81939512  0.03429862  0.25642419    -0.00600
Br1544     Br  0.81712972  0.97373014  0.27805321    -0.00700
Br1545     Br  0.92369156  0.01819588  0.22009489    -0.00700
Br1546     Br  0.92120330  0.95720521  0.24057380    -0.00600
C1547       C  0.86976263  0.76338522  0.00244518    -0.01800
C1548       C  0.87694018  0.77687823  0.02466791     0.07900
C1549       C  0.88476041  0.76320254  0.04657908    -0.01900
C1550       C  0.88498816  0.73610093  0.04649022    -0.01900
C1551       C  0.87723423  0.72248734  0.02451970     0.08000
C1552       C  0.86985902  0.73614367  0.00237461    -0.02100
Br1553     Br  0.85824945  0.71764148  0.97258261    -0.00600
Br1554     Br  0.85825477  0.78218176  0.97272908    -0.00700
Br1555     Br  0.89675787  0.71768806  0.07640439    -0.00700
Br1556     Br  0.89586137  0.78164641  0.07666513    -0.00600
C1557       C  0.98471502  0.85808197  0.04407721    -0.01800
C1558       C  0.97143915  0.87972653  0.03459329     0.07900
C1559       C  0.98541444  0.90103251  0.02513518    -0.01900
C1560       C  0.01265384  0.90060160  0.02449683    -0.01900
C1561       C  0.02643717  0.87871885  0.03374532     0.08000
C1562       C  0.01200502  0.85744220  0.04371445    -0.02100
Br1563     Br  0.02874954  0.82631986  0.05563961    -0.00600
Br1564     Br  0.96516417  0.82936120  0.05798733    -0.00700
Br1565     Br  0.03013362  0.93073031  0.01092679    -0.00700
Br1566     Br  0.96683674  0.93064177  0.01215983    -0.00600
C1567       C  0.89253752  0.88703768  0.41824672    -0.01800
C1568       C  0.87069817  0.87684256  0.43119612     0.07900
C1569       C  0.84918151  0.86828046  0.41714855    -0.01900
C1570       C  0.84935302  0.87008123  0.39038629    -0.01900
C1571       C  0.87150382  0.87946308  0.37734192     0.08000
C1572       C  0.89294520  0.88832303  0.39139598    -0.02100
Br1573     Br  0.92342075  0.90136916  0.37412077    -0.00600
Br1574     Br  0.92197525  0.89973668  0.43708026    -0.00700
Br1575     Br  0.81845914  0.86073193  0.37187046    -0.00700
Br1576     Br  0.82004481  0.85225755  0.43431039    -0.00600
C1577       C  0.88969853  0.88426409  0.16966684    -0.01800
C1578       C  0.86833330  0.87210634  0.18161266     0.07900
C1579       C  0.84760376  0.86333794  0.16663688    -0.01900
C1580       C  0.84832429  0.86666025  0.13994790    -0.01900
C1581       C  0.87057188  0.87722998  0.12787570     0.08000
C1582       C  0.89125974  0.88604955  0.14291144    -0.02100
Br1583     Br  0.92241226  0.89944316  0.12712238    -0.00600
Br1584     Br  0.91609712  0.90034893  0.18988459    -0.00700
Br1585     Br  0.81797250  0.85810355  0.12030355    -0.00700
Br1586     Br  0.81867400  0.84576735  0.18251491    -0.00600
C1587       C  0.87188610  0.00708429  0.47719315    -0.01800
C1588       C  0.86530917  0.02699318  0.49448737     0.07900
C1589       C  0.86736110  0.02052082  0.02193009    -0.01900
C1590       C  0.86790591  0.99445881  0.02999899    -0.01900
C1591       C  0.86927858  0.97444218  0.01186124     0.08000
C1592       C  0.87375526  0.98131236  0.48574656    -0.02100
Br1593     Br  0.88389540  0.95462720  0.46205669    -0.00600
Br1594     Br  0.87659797  0.01435872  0.44121977    -0.00700
Br1595     Br  0.86519383  0.98618243  0.06592336    -0.00700
Br1596     Br  0.86602822  0.04737900  0.04741652    -0.00600
C1597       C  0.63009367  0.76411100  0.32225424    -0.01800
C1598       C  0.62733352  0.77714988  0.34573462     0.07900
C1599       C  0.62483475  0.76269163  0.36850948    -0.01900
C1600       C  0.62518436  0.73541022  0.36781158    -0.01900
C1601       C  0.62876226  0.72236556  0.34442191     0.08000
C1602       C  0.63112018  0.73691276  0.32164262    -0.02100
Br1603     Br  0.63681920  0.71978605  0.28945391    -0.00600
Br1604     Br  0.63330850  0.78350390  0.29076087    -0.00700
Br1605     Br  0.61857426  0.71598753  0.39863774    -0.00700
Br1606     Br  0.61931925  0.78021649  0.40051549    -0.00600
C1607       C  0.51152958  0.87370538  0.36681344    -0.01800
C1608       C  0.52621192  0.87882764  0.34461314     0.07900
C1609       C  0.51361634  0.88623847  0.32195360    -0.01900
C1610       C  0.48640432  0.88682603  0.32097264    -0.01900
C1611       C  0.47158143  0.88149921  0.34322027     0.08000
C1612       C  0.48447850  0.87599615  0.36639587    -0.02100
Br1613     Br  0.46565531  0.87343706  0.39836128    -0.00600
Br1614     Br  0.52830374  0.86238739  0.39778201    -0.00700
Br1615     Br  0.46999572  0.89402511  0.28866477    -0.00700
Br1616     Br  0.53368113  0.89731871  0.29268191    -0.00600
C1617       C  0.60157096  0.98980630  0.37017703    -0.01800
C1618       C  0.62467834  0.97570914  0.36700586     0.07900
C1619       C  0.64835549  0.98704962  0.37409131    -0.01900
C1620       C  0.64905757  0.01231847  0.38402709    -0.01900
C1621       C  0.62599687  0.02659563  0.38707684     0.08000
C1622       C  0.60222133  0.01523177  0.37989096    -0.02100
Br1623     Br  0.57056545  0.03487504  0.38165046    -0.00600
Br1624     Br  0.56895747  0.97450274  0.36051922    -0.00700
Br1625     Br  0.68179096  0.02671960  0.39452417    -0.00700
Br1626     Br  0.67979439  0.96725662  0.37195809    -0.00600
C1627       C  0.72877975  0.85817015  0.30439198    -0.01800
C1628       C  0.72241351  0.87778519  0.32200568     0.07900
C1629       C  0.74116705  0.89631762  0.32869139    -0.01900
C1630       C  0.76630279  0.89491716  0.31830779    -0.01900
C1631       C  0.77275666  0.87511299  0.30098933     0.08000
C1632       C  0.75397547  0.85669989  0.29410383    -0.02100
Br1633     Br  0.76291913  0.82949211  0.27062667    -0.00600
Br1634     Br  0.70261404  0.83393679  0.29358172    -0.00700
Br1635     Br  0.79225843  0.91969388  0.32837075    -0.00700
Br1636     Br  0.73256078  0.92325003  0.35252388    -0.00600
C1637       C  0.64062267  0.76136095  0.07738832    -0.01800
C1638       C  0.63044235  0.77447381  0.09868702     0.07900
C1639       C  0.61997264  0.76020181  0.11928862    -0.01900
C1640       C  0.61954780  0.73288371  0.11845247    -0.01900
C1641       C  0.62950989  0.71978528  0.09694611     0.08000
C1642       C  0.64034437  0.73417607  0.07662343    -0.02100
Br1643     Br  0.65597694  0.71663608  0.04814528    -0.00600
Br1644     Br  0.65525100  0.78075910  0.04923667    -0.00700
Br1645     Br  0.60451935  0.71343181  0.14630032    -0.00700
Br1646     Br  0.60523025  0.77819960  0.14803333    -0.00600
C1647       C  0.51481310  0.86818884  0.11281597    -0.01800
C1648       C  0.52962134  0.87570899  0.09136640     0.07900
C1649       C  0.51725617  0.88544666  0.06943224    -0.01900
C1650       C  0.49007788  0.88705797  0.06878516    -0.01900
C1651       C  0.47530989  0.87918805  0.09016325     0.08000
C1652       C  0.48777708  0.86999935  0.11226971    -0.02100
Br1653     Br  0.46787407  0.85896581  0.14172414    -0.00600
Br1654     Br  0.53151454  0.85457789  0.14286427    -0.00700
Br1655     Br  0.47313342  0.90153672  0.03932045    -0.00700
Br1656     Br  0.53757559  0.89823759  0.04105687    -0.00600
C1657       C  0.61328575  0.85764259  0.45746983    -0.01800
C1658       C  0.63265998  0.87115884  0.44395971     0.07900
C1659       C  0.65060197  0.88647557  0.45725044    -0.01900
C1660       C  0.64910880  0.88841612  0.48407086    -0.01900
C1661       C  0.62901148  0.87563832  0.49771044     0.08000
C1662       C  0.61118672  0.86005034  0.48413261    -0.02100
Br1663     Br  0.58265940  0.84288353  0.50129951    -0.00600
Br1664     Br  0.58951529  0.83561767  0.43919674    -0.00700
Br1665     Br  0.68045559  0.90048418  0.00238919    -0.00700
Br1666     Br  0.67631341  0.90603852  0.43845748    -0.00600
C1667       C  0.65051553  0.88478714  0.20840338    -0.01800
C1668       C  0.63123885  0.87136037  0.19487077     0.07900
C1669       C  0.60962616  0.86130379  0.20807523    -0.01900
C1670       C  0.60657148  0.86567959  0.23437186    -0.01900
C1671       C  0.62603305  0.87875282  0.24820484     0.08000
C1672       C  0.64825553  0.88799588  0.23505940    -0.02100
Br1673     Br  0.67637786  0.90418092  0.25323225    -0.00600
Br1674     Br  0.67941513  0.90001811  0.19027564    -0.00700
Br1675     Br  0.57463537  0.85500079  0.25068568    -0.00700
Br1676     Br  0.58443300  0.84057927  0.19021494    -0.00600
C1677       C  0.64785376  0.98008717  0.13370233    -0.01800
C1678       C  0.62757036  0.97207571  0.11771825     0.07900
C1679       C  0.60593432  0.98818638  0.11443022    -0.01900
C1680       C  0.60511688  0.01268468  0.12616847    -0.01900
C1681       C  0.62582745  0.02102217  0.14155574     0.08000
C1682       C  0.64680485  0.00432409  0.14579618    -0.02100
Br1683     Br  0.67313470  0.01394508  0.16974809    -0.00600
Br1684     Br  0.67663797  0.95736358  0.13985809    -0.00700
Br1685     Br  0.57578878  0.03490138  0.12083746    -0.00700
Br1686     Br  0.57754354  0.97657953  0.09362592    -0.00600
C1687       C  0.76627857  0.89744220  0.06462061    -0.01800
C1688       C  0.77478852  0.87508264  0.05177916     0.07900
C1689       C  0.75880364  0.85300961  0.05107465    -0.01900
C1690       C  0.73431650  0.85333552  0.06292627    -0.01900
C1691       C  0.72559119  0.87581569  0.07547374     0.08000
C1692       C  0.74165854  0.89788407  0.07623418    -0.02100
Br1693     Br  0.73034346  0.92840027  0.09411862    -0.00600
Br1694     Br  0.78899092  0.92696901  0.06760898    -0.00700
Br1695     Br  0.71228465  0.82328717  0.06080267    -0.00700
Br1696     Br  0.77007005  0.82200804  0.53433225    -0.00600
Zn1697     Zn  0.60536233  0.89296894  0.61915850     1.49700
Zn1698     Zn  0.64435802  0.90217071  0.57423615     1.49400
Zn1699     Zn  0.65458894  0.85621505  0.61553917     1.49100
Zn1700     Zn  0.60982763  0.85230122  0.57483686     1.49500
O1701       O  0.62885059  0.87579097  0.59629207    -1.84000
O1702       O  0.61191196  0.93099910  0.62012493    -0.74700
O1703       O  0.68199664  0.89475359  0.57147713    -0.74500
O1704       O  0.65132533  0.86463977  0.65366850    -0.74000
O1705       O  0.64021543  0.93863405  0.58890218    -0.74700
O1706       O  0.61184746  0.88172121  0.65482488    -0.74300
O1707       O  0.69028011  0.86378080  0.59997380    -0.74900
O1708       O  0.61626739  0.81526557  0.58411473    -0.74300
O1709       O  0.63223974  0.89854889  0.53746342    -0.75000
O1710       O  0.64821887  0.81723004  0.61222367    -0.74400
O1711       O  0.62121759  0.85710950  0.53858830    -0.74900
O1712       O  0.57146578  0.85897215  0.57720215    -0.74800
O1713       O  0.56841981  0.88688759  0.60932844    -0.74600
C1714       C  0.62652258  0.94634223  0.60771718     0.77200
C1715       C  0.69751371  0.87907211  0.58203277     0.77700
C1716       C  0.63169134  0.87292187  0.66609544     0.76700
C1717       C  0.63231589  0.80423089  0.59882191     0.77000
C1718       C  0.62734093  0.87732594  0.52604295     0.78200
C1719       C  0.55806184  0.87308750  0.59207488     0.77200
Zn1720     Zn  0.64334045  0.90194150  0.82535797     1.49700
Zn1721     Zn  0.60567506  0.85327727  0.82471408     1.49400
Zn1722     Zn  0.65228841  0.85446376  0.86422421     1.49100
Zn1723     Zn  0.60411258  0.89205468  0.87097227     1.49500
O1724       O  0.62650956  0.87537144  0.84639046    -1.84000
O1725       O  0.63185848  0.89952111  0.78838011    -0.74700
O1726       O  0.61229847  0.81554066  0.83198629    -0.74500
O1727       O  0.68785570  0.86068437  0.84862677    -0.74000
O1728       O  0.61565832  0.85972954  0.78818403    -0.74700
O1729       O  0.68142381  0.89429851  0.82280130    -0.74300
O1730       O  0.64487001  0.81631986  0.85947442    -0.74900
O1731       O  0.61254985  0.88021052  0.90620555    -0.74300
O1732       O  0.56726007  0.86051603  0.82932023    -0.75000
O1733       O  0.65112903  0.86150524  0.90255859    -0.74400
O1734       O  0.56650802  0.88621567  0.86324805    -0.74900
O1735       O  0.61019505  0.93023190  0.87182174    -0.74800
O1736       O  0.63824166  0.93806340  0.84041437    -0.74600
C1737       C  0.62431331  0.87949049  0.77632761     0.77200
C1738       C  0.62870741  0.80391805  0.84590413     0.77700
C1739       C  0.69605518  0.87695903  0.83208486     0.76700
C1740       C  0.63260865  0.87031749  0.91616219     0.77000
C1741       C  0.55484951  0.87372437  0.84583158     0.78200
C1742       C  0.62439225  0.94577337  0.85914979     0.77200
Zn1743     Zn  0.84590331  0.89443114  0.50823845     1.49700
Zn1744     Zn  0.85307098  0.85316071  0.55147910     1.49400
Zn1745     Zn  0.89505807  0.85739023  0.50792791     1.49100
Zn1746     Zn  0.89079767  0.90227609  0.54966221     1.49500
O1747       O  0.87143561  0.87706703  0.52935858    -1.84000
O1748       O  0.80908129  0.88913389  0.52141141    -0.74700
O1749       O  0.85996080  0.81624293  0.54266088    -0.74500
O1750       O  0.88865921  0.86670602  0.97107951    -0.74000
O1751       O  0.81511454  0.85932899  0.55135148    -0.74700
O1752       O  0.84945016  0.88437902  0.97220613    -0.74300
O1753       O  0.88946024  0.81913671  0.51179119    -0.74900
O1754       O  0.92958961  0.89503371  0.54680388    -0.74300
O1755       O  0.86253534  0.85909926  0.58754817    -0.75000
O1756       O  0.93213975  0.86427617  0.51730279    -0.74400
O1757       O  0.88090983  0.89813097  0.58728686    -0.74900
O1758       O  0.88396405  0.93912442  0.53639119    -0.74800
O1759       O  0.85273387  0.93232553  0.50812315    -0.74600
C1760       C  0.80043366  0.87461582  0.53926204     0.77200
C1761       C  0.87510341  0.80577386  0.52657130     0.77700
C1762       C  0.86900732  0.87600154  0.95981547     0.76700
C1763       C  0.94284129  0.87945749  0.53317083     0.77000
C1764       C  0.87131396  0.87871435  0.59921271     0.78200
C1765       C  0.86834454  0.94738594  0.51941038     0.77200
Zn1766     Zn  0.85292914  0.85060344  0.80294525     1.49700
Zn1767     Zn  0.84419350  0.89063606  0.75828320     1.49400
Zn1768     Zn  0.88919097  0.89974482  0.79881554     1.49100
Zn1769     Zn  0.89401073  0.85319729  0.75867633     1.49500
O1770       O  0.87027926  0.87371495  0.77933862    -1.84000
O1771       O  0.81496278  0.85683347  0.80393502    -0.74700
O1772       O  0.85025638  0.92896061  0.75726442    -0.74500
O1773       O  0.87892002  0.89763565  0.83636062    -0.74000
O1774       O  0.80766718  0.88464428  0.77234252    -0.74700
O1775       O  0.86442089  0.85719592  0.83862288    -0.74300
O1776       O  0.88276618  0.93563228  0.78406652    -0.74900
O1777       O  0.93113111  0.86331809  0.76607393    -0.74300
O1778       O  0.84916018  0.88069882  0.72128588    -0.75000
O1779       O  0.92789095  0.89349826  0.79617043    -0.74400
O1780       O  0.88650670  0.85956212  0.72142596    -0.74900
O1781       O  0.88980306  0.81459639  0.76542730    -0.74800
O1782       O  0.85840868  0.81349449  0.79430147    -0.74600
C1783       C  0.79974021  0.87099348  0.79119432     0.77200
C1784       C  0.86670289  0.94387891  0.76757356     0.77700
C1785       C  0.87132765  0.87809823  0.84938132     0.76700
C1786       C  0.94146804  0.87903814  0.78174260     0.77000
C1787       C  0.86800377  0.87023269  0.70942331     0.78200
C1788       C  0.87419701  0.80191548  0.77966387     0.77200
Zn1789     Zn  0.85417372  0.09530398  0.70106898     1.49700
Zn1790     Zn  0.84526580  0.13874461  0.74386358     1.49400
Zn1791     Zn  0.89428592  0.10187273  0.74582456     1.49100
Zn1792     Zn  0.89115065  0.14413391  0.70253061     1.49500
O1793       O  0.87106273  0.12019525  0.72334190    -1.84000
O1794       O  0.81633408  0.10305965  0.69945302    -0.74700
O1795       O  0.84821982  0.12834928  0.78154224    -0.74500
O1796       O  0.88728975  0.06386671  0.74514178    -0.74000
O1797       O  0.80902310  0.13298859  0.72902951    -0.74700
O1798       O  0.85819345  0.05857015  0.71445444    -0.74300
O1799       O  0.88802260  0.11198250  0.78205984    -0.74900
O1800       O  0.92969626  0.13872970  0.70702040    -0.74300
O1801       O  0.85270540  0.17740454  0.74263203    -0.75000
O1802       O  0.93154573  0.10827938  0.73691488    -0.74400
O1803       O  0.88323706  0.18059082  0.71276614    -0.74900
O1804       O  0.88275061  0.13939722  0.66531771    -0.74800
O1805       O  0.86592485  0.09967377  0.66432853    -0.74600
C1806       C  0.80113488  0.11842364  0.71097062     0.77200
C1807       C  0.86797230  0.12011286  0.79360545     0.77700
C1808       C  0.87210789  0.04956936  0.73240754     0.76700
C1809       C  0.94266375  0.12372900  0.72137600     0.77000
C1810       C  0.86825423  0.19095701  0.72913308     0.78200
C1811       C  0.87416138  0.11999973  0.65302991     0.77200
Zn1812     Zn  0.84400914  0.10748545  0.99526641     1.49700
Zn1813     Zn  0.89008647  0.09835923  0.95478295     1.49400
Zn1814     Zn  0.85342734  0.14682636  0.94941564     1.49100
Zn1815     Zn  0.89305047  0.14495301  0.99455644     1.49500
O1816       O  0.87018153  0.12419293  0.97359511    -1.84000
O1817       O  0.85045393  0.06918761  0.99662878    -0.74700
O1818       O  0.88114875  0.09947436  0.91669311    -0.74500
O1819       O  0.81547197  0.14064075  0.94946650    -0.74000
O1820       O  0.88392635  0.06263178  0.97068218    -0.74700
O1821       O  0.80760248  0.11335203  0.98146260    -0.74300
O1822       O  0.86412434  0.13885477  0.91386579    -0.74900
O1823       O  0.88818034  0.18317514  0.98841517    -0.74300
O1824       O  0.92841325  0.10667875  0.95728334    -0.75000
O1825       O  0.86058757  0.18432383  0.95609303    -0.74400
O1826       O  0.93011087  0.13697768  0.98707259    -0.74900
O1827       O  0.88637977  0.13533442  0.53131480    -0.74800
O1828       O  0.84688142  0.11799904  0.53177957    -0.74600
C1829       C  0.86741893  0.05430890  0.98702572     0.77200
C1830       C  0.87274158  0.11845246  0.90349264     0.77700
C1831       C  0.79990148  0.12683623  0.96252383     0.76700
C1832       C  0.87492214  0.19573072  0.97219950     0.77000
C1833       C  0.94133428  0.12207637  0.97130511     0.78200
C1834       C  0.86691730  0.12626959  0.54333849     0.77200
Zn1835     Zn  0.65303218  0.10209756  0.63882993     1.49700
Zn1836     Zn  0.60659629  0.09466151  0.67916417     1.49400
Zn1837     Zn  0.64291217  0.14400233  0.68137526     1.49100
Zn1838     Zn  0.60323815  0.13870325  0.63635744     1.49500
O1839       O  0.62627602  0.11971191  0.65870201    -1.84000
O1840       O  0.64605094  0.06396933  0.63892494    -0.74700
O1841       O  0.61764655  0.09781762  0.71658015    -0.74500
O1842       O  0.68112384  0.13765153  0.68325064    -0.74000
O1843       O  0.61242208  0.05819958  0.66506694    -0.74700
O1844       O  0.68905372  0.10803879  0.65362108    -0.74300
O1845       O  0.63061027  0.13877535  0.71714366    -0.74900
O1846       O  0.60789132  0.17745116  0.63998803    -0.74300
O1847       O  0.56774601  0.10187526  0.67651216    -0.75000
O1848       O  0.63698151  0.18084799  0.67089988    -0.74400
O1849       O  0.56588361  0.13017973  0.64448490    -0.74900
O1850       O  0.61137722  0.12955154  0.59985962    -0.74800
O1851       O  0.65017867  0.11111760  0.60118297    -0.74600
C1852       C  0.62889981  0.04950159  0.64903707     0.77200
C1853       C  0.62491533  0.11790931  0.72880851     0.77700
C1854       C  0.69664900  0.12261224  0.67174564     0.76700
C1855       C  0.62225528  0.19106372  0.65436521     0.77000
C1856       C  0.55475154  0.11587794  0.66113054     0.78200
C1857       C  0.63093025  0.11971232  0.58864897     0.77200
Zn1858     Zn  0.64170027  0.14413730  0.93319087     1.49700
Zn1859     Zn  0.60569781  0.09545290  0.92730499     1.49400
Zn1860     Zn  0.60439206  0.14207603  0.88672210     1.49100
Zn1861     Zn  0.65303680  0.10437506  0.88854451     1.49500
O1862       O  0.62607846  0.12128430  0.90869360    -1.84000
O1863       O  0.63030259  0.13630922  0.96847847    -0.74700
O1864       O  0.56736661  0.10321117  0.92332120    -0.74500
O1865       O  0.61064843  0.18060083  0.89142007    -0.74000
O1866       O  0.61543829  0.09611973  0.96507028    -0.74700
O1867       O  0.63573426  0.18143723  0.92565492    -0.74300
O1868       O  0.56703310  0.13477105  0.89430687    -0.74900
O1869       O  0.65062243  0.11487362  0.85132739    -0.74300
O1870       O  0.61181218  0.05968251  0.91230168    -0.75000
O1871       O  0.61145970  0.13267902  0.85018166    -0.74400
O1872       O  0.64555099  0.06620379  0.88666983    -0.74900
O1873       O  0.68900079  0.11029765  0.90403154    -0.74800
O1874       O  0.67948413  0.13842645  0.93456119    -0.74600
C1875       C  0.62372337  0.11490936  0.97855220     0.77200
C1876       C  0.55519880  0.11897938  0.90899628     0.77700
C1877       C  0.62328483  0.19303309  0.90823961     0.76700
C1878       C  0.63109941  0.12308993  0.83897970     0.77000
C1879       C  0.62830418  0.05135074  0.89613381     0.78200
C1880       C  0.69576368  0.12455486  0.92275560     0.77200
Zn1881     Zn  0.10697219  0.85594735  0.55299194     1.49700
Zn1882     Zn  0.15441164  0.85923374  0.51223705     1.49400
Zn1883     Zn  0.10536048  0.89643237  0.50831486     1.49100
Zn1884     Zn  0.14591136  0.90430446  0.55281906     1.49500
O1885       O  0.12829430  0.87870243  0.53160046    -1.84000
O1886       O  0.11406318  0.81840873  0.54381030    -0.74700
O1887       O  0.15096245  0.86717723  0.97393528    -0.74500
O1888       O  0.06747622  0.88972156  0.51584604    -0.74000
O1889       O  0.14683636  0.82100641  0.51610953    -0.74700
O1890       O  0.06826118  0.86320345  0.54894915    -0.74300
O1891       O  0.11287556  0.88710972  0.97249251    -0.74900
O1892       O  0.14172223  0.94089978  0.53927700    -0.74300
O1893       O  0.19094496  0.86538322  0.52694398    -0.75000
O1894       O  0.11236225  0.93458474  0.50906454    -0.74400
O1895       O  0.18372500  0.89710520  0.55446082    -0.74900
O1896       O  0.13497870  0.90061295  0.58963652    -0.74800
O1897       O  0.11577340  0.86197638  0.59006501    -0.74600
C1898       C  0.13054642  0.80774066  0.52902659     0.77200
C1899       C  0.13225519  0.87710286  0.96140651     0.77700
C1900       C  0.05557345  0.87670504  0.53293846     0.76700
C1901       C  0.12742824  0.94941557  0.52142588     0.77000
C1902       C  0.19891882  0.88093930  0.54416467     0.78200
C1903       C  0.12561858  0.88124254  0.60168556     0.77200
Zn1904     Zn  0.14196037  0.85664731  0.80418508     1.49700
Zn1905     Zn  0.10204595  0.85969792  0.75935159     1.49400
Zn1906     Zn  0.10366772  0.90500348  0.80170353     1.49100
Zn1907     Zn  0.15020552  0.89885856  0.76145119     1.49500
O1908       O  0.12421068  0.88023127  0.78159433    -1.84000
O1909       O  0.13524468  0.81941610  0.79592841    -0.74700
O1910       O  0.06465002  0.86769874  0.76631094    -0.74500
O1911       O  0.11251306  0.90178046  0.83978868    -0.74000
O1912       O  0.10636229  0.82096285  0.76498498    -0.74700
O1913       O  0.13226089  0.86357851  0.84038437    -0.74300
O1914       O  0.06546850  0.89662196  0.79775052    -0.74900
O1915       O  0.14158907  0.93651942  0.76086892    -0.74300
O1916       O  0.11048831  0.86793308  0.72257105    -0.75000
O1917       O  0.10912358  0.94211335  0.78820579    -0.74400
O1918       O  0.14815122  0.88902805  0.72418716    -0.74900
O1919       O  0.18653793  0.89450603  0.77611009    -0.74800
O1920       O  0.17997303  0.86245708  0.80365755    -0.74600
C1921       C  0.12042054  0.80802761  0.78025079     0.77200
C1922       C  0.05311279  0.88203099  0.78244648     0.77700
C1923       C  0.12263644  0.88291002  0.85192550     0.76700
C1924       C  0.12499575  0.95103620  0.77156583     0.77000
C1925       C  0.12979091  0.87871471  0.71164198     0.78200
C1926       C  0.19489477  0.87878801  0.79296782     0.77200
Zn1927     Zn  0.39909819  0.89795224  0.61476425     1.49700
Zn1928     Zn  0.35810913  0.90725352  0.57114753     1.49400
Zn1929     Zn  0.39550380  0.85867954  0.56899759     1.49100
Zn1930     Zn  0.35012483  0.85990089  0.61080980     1.49500
O1931       O  0.37548066  0.88082135  0.59154787    -1.84000
O1932       O  0.39276102  0.93629862  0.61602829    -0.74700
O1933       O  0.36705371  0.90374075  0.53334660    -0.74500
O1934       O  0.43380949  0.86398314  0.57315113    -0.74000
O1935       O  0.36369903  0.94352525  0.58577076    -0.74700
O1936       O  0.43632172  0.89096129  0.60602838    -0.74300
O1937       O  0.38561202  0.86497376  0.53237300    -0.74900
O1938       O  0.35759962  0.82141906  0.60593538    -0.74300
O1939       O  0.32002034  0.90027597  0.57105367    -0.75000
O1940       O  0.38919629  0.82147272  0.57713111    -0.74400
O1941       O  0.31361337  0.86640585  0.59653953    -0.74900
O1942       O  0.35366079  0.86757440  0.64930675    -0.74800
O1943       O  0.39256679  0.88627977  0.65042195    -0.74600
C1944       C  0.37776123  0.95151825  0.60411916     0.77200
C1945       C  0.37533337  0.88413876  0.52102701     0.77700
C1946       C  0.44699298  0.87692613  0.58909776     0.76700
C1947       C  0.37372668  0.80936573  0.59185581     0.77000
C1948       C  0.30519743  0.88303973  0.58049607     0.78200
C1949       C  0.37297546  0.87658102  0.66165561     0.77200
Zn1950     Zn  0.39235096  0.85620003  0.86395203     1.49700
Zn1951     Zn  0.39290901  0.90281450  0.82312072     1.49400
Zn1952     Zn  0.35460922  0.85425981  0.81731193     1.49100
Zn1953     Zn  0.34503950  0.89464325  0.86168370     1.49500
O1954       O  0.37138253  0.87718120  0.84139946    -1.84000
O1955       O  0.42999239  0.86190599  0.85623217    -0.74700
O1956       O  0.38709485  0.89979960  0.78446565    -0.74500
O1957       O  0.36043098  0.81663684  0.82541442    -0.74000
O1958       O  0.43095305  0.89573995  0.83014719    -0.74700
O1959       O  0.38507487  0.81791806  0.85993516    -0.74300
O1960       O  0.36678935  0.86179803  0.78189666    -0.74900
O1961       O  0.30942216  0.89080663  0.84546284    -0.74300
O1962       O  0.38558978  0.93941886  0.83603741    -0.75000
O1963       O  0.31650872  0.86082516  0.81607392    -0.74400
O1964       O  0.35345495  0.93227290  0.86339234    -0.74900
O1965       O  0.34647216  0.88427362  0.89913786    -0.74800
O1966       O  0.38552599  0.86629009  0.90051905    -0.74600
C1967       C  0.44261734  0.87859513  0.84327295     0.77200
C1968       C  0.37757903  0.88126191  0.77139806     0.77700
C1969       C  0.37256540  0.80521951  0.84323551     0.76700
C1970       C  0.30140597  0.87648071  0.82731218     0.77000
C1971       C  0.36964549  0.94751234  0.85286919     0.78200
C1972       C  0.36591920  0.87607902  0.91161047     0.77200
Zn1973     Zn  0.34687348  0.10892566  0.63421578     1.49700
Zn1974     Zn  0.39002495  0.10041006  0.67630420     1.49400
Zn1975     Zn  0.39630844  0.14568174  0.63479171     1.49100
Zn1976     Zn  0.35465548  0.14996598  0.67826743     1.49500
O1977       O  0.37216182  0.12619589  0.65573315    -1.84000
O1978       O  0.35466193  0.07095097  0.63222266    -0.74700
O1979       O  0.42880224  0.10669844  0.67475549    -0.74500
O1980       O  0.39122353  0.13569673  0.59817690    -0.74000
O1981       O  0.38443893  0.06410534  0.66182371    -0.74700
O1982       O  0.35089007  0.12047467  0.59759730    -0.74300
O1983       O  0.43303782  0.13712309  0.64479498    -0.74900
O1984       O  0.36090924  0.18736125  0.66829321    -0.74300
O1985       O  0.37829461  0.10358272  0.71338130    -0.75000
O1986       O  0.39021772  0.18454482  0.63745635    -0.74400
O1987       O  0.36644831  0.14476794  0.71411344    -0.74900
O1988       O  0.31649653  0.14160493  0.67943679    -0.74800
O1989       O  0.31038791  0.11296629  0.64837663    -0.74600
C1990       C  0.37017805  0.05595305  0.64371713     0.77200
C1991       C  0.44285913  0.12131724  0.66074359     0.77700
C1992       C  0.37153859  0.12754699  0.58608514     0.76700
C1993       C  0.37560556  0.19812707  0.65175084     0.77000
C1994       C  0.37186265  0.12386923  0.72570718     0.78200
C1995       C  0.30187248  0.12633616  0.66702732     0.77200
Zn1996     Zn  0.34624766  0.10500379  0.88535761     1.49700
Zn1997     Zn  0.39506382  0.14198367  0.88422348     1.49400
Zn1998     Zn  0.35498970  0.14476180  0.92964295     1.49100
Zn1999     Zn  0.39230808  0.09570529  0.92516351     1.49500
O2000       O  0.37236924  0.12169670  0.90621173    -1.84000
O2001       O  0.34866225  0.11649409  0.84852996    -0.74700
O2002       O  0.38919743  0.18030849  0.88875095    -0.74500
O2003       O  0.31688972  0.13820736  0.93088647    -0.74000
O2004       O  0.38826667  0.13348683  0.84750882    -0.74700
O2005       O  0.31004193  0.10896390  0.90069940    -0.74300
O2006       O  0.36167334  0.18218139  0.92135593    -0.74900
O2007       O  0.38644737  0.09977446  0.96355950    -0.74300
O2008       O  0.43235817  0.13459848  0.89195820    -0.75000
O2009       O  0.36634692  0.13767212  0.96495637    -0.74400
O2010       O  0.43057158  0.10198505  0.91970361    -0.74900
O2011       O  0.38440301  0.05919276  0.91193259    -0.74800
O2012       O  0.35440383  0.06746604  0.88295422    -0.74600
C2013       C  0.36833373  0.12481494  0.83620605     0.77200
C2014       C  0.37561984  0.19327894  0.90446284     0.77700
C2015       C  0.30186265  0.12296208  0.91906693     0.76700
C2016       C  0.37721727  0.11880725  0.97609737     0.77000
C2017       C  0.44344256  0.11814075  0.90628549     0.78200
C2018       C  0.36945279  0.05172068  0.89404825     0.77200
Zn2019     Zn  0.15127369  0.10886474  0.73870862     1.49700
Zn2020     Zn  0.10533835  0.10044349  0.69892157     1.49400
Zn2021     Zn  0.10366921  0.14686205  0.73980207     1.49100
Zn2022     Zn  0.14355558  0.14965418  0.69487869     1.49500
O2023       O  0.12564337  0.12624350  0.71787071    -1.84000
O2024       O  0.14155264  0.07174419  0.74216355    -0.74700
O2025       O  0.06702548  0.10691341  0.70528194    -0.74500
O2026       O  0.10955348  0.13675333  0.77617604    -0.74000
O2027       O  0.11250784  0.06344928  0.71237550    -0.74700
O2028       O  0.14951064  0.12074521  0.77568866    -0.74300
O2029       O  0.06644827  0.14025932  0.73193969    -0.74900
O2030       O  0.13835296  0.18713277  0.70374441    -0.74300
O2031       O  0.11219773  0.10511806  0.66029546    -0.75000
O2032       O  0.11062995  0.18535244  0.73627971    -0.74400
O2033       O  0.13246551  0.14321205  0.65907426    -0.74900
O2034       O  0.18137282  0.14237969  0.69398877    -0.74800
O2035       O  0.18712296  0.11061929  0.72165307    -0.74600
C2036       C  0.12666487  0.05595793  0.73091502     0.77200
C2037       C  0.05469197  0.12345182  0.71860311     0.77700
C2038       C  0.12931056  0.12813056  0.78770330     0.76700
C2039       C  0.12478572  0.19818919  0.72080288     0.77000
C2040       C  0.12199408  0.12414523  0.64779941     0.78200
C2041       C  0.19581512  0.12536174  0.70394466     0.77200
Zn2042     Zn  0.10281149  0.10779324  0.99202058     1.49700
Zn2043     Zn  0.15186546  0.14371630  0.98601973     1.49400
Zn2044     Zn  0.14090698  0.09805914  0.94552357     1.49100
Zn2045     Zn  0.10405973  0.14737076  0.94697648     1.49500
O2046       O  0.12527814  0.12445637  0.96746174    -1.84000
O2047       O  0.10698271  0.11992778  0.52696584    -0.74700
O2048       O  0.18765709  0.13581360  0.97070738    -0.74500
O2049       O  0.13562178  0.06149777  0.96027895    -0.74000
O2050       O  0.14727298  0.13524251  0.52464212    -0.74700
O2051       O  0.11142889  0.07059191  0.99410197    -0.74300
O2052       O  0.17925752  0.10432911  0.94306249    -0.74900
O2053       O  0.11218101  0.14212769  0.90980934    -0.74300
O2054       O  0.14518785  0.18239537  0.98209475    -0.75000
O2055       O  0.12912519  0.10256992  0.90874260    -0.74400
O2056       O  0.11119554  0.18451987  0.95622718    -0.74900
O2057       O  0.06581859  0.14021800  0.95185868    -0.74800
O2058       O  0.06500165  0.11179027  0.98368286    -0.74600
C2059       C  0.12752294  0.12789977  0.53759615     0.77200
C2060       C  0.19502849  0.11995034  0.95347054     0.77700
C2061       C  0.12408267  0.05449097  0.98081489     0.76700
C2062       C  0.12081825  0.12280830  0.89744498     0.77000
C2063       C  0.12824924  0.19541326  0.97000754     0.78200
C2064       C  0.05335849  0.12560215  0.96722876     0.77200
Zn2065     Zn  0.84895624  0.39228454  0.73783744     1.49700
Zn2066     Zn  0.85992884  0.34967469  0.69623777     1.49400
Zn2067     Zn  0.89727458  0.39833225  0.70014093     1.49100
Zn2068     Zn  0.89728345  0.35459638  0.74348257     1.49500
O2069       O  0.87608291  0.37378115  0.71949495    -1.84000
O2070       O  0.81399016  0.38730446  0.72148984    -0.74700
O2071       O  0.87231360  0.35532455  0.66060131    -0.74500
O2072       O  0.89077415  0.43532859  0.71254699    -0.74000
O2073       O  0.82228496  0.35647649  0.69327647    -0.74700
O2074       O  0.85631725  0.43001229  0.73759724    -0.74300
O2075       O  0.89109688  0.39401877  0.66203127    -0.74900
O2076       O  0.93561655  0.36255219  0.73771219    -0.74300
O2077       O  0.86436194  0.31272655  0.70737804    -0.75000
O2078       O  0.93500433  0.39100189  0.70599622    -0.74400
O2079       O  0.88996701  0.31588686  0.74114145    -0.74900
O2080       O  0.88788558  0.36543152  0.77902714    -0.74800
O2081       O  0.84947342  0.38427762  0.77556290    -0.74600
C2082       C  0.80681610  0.37236743  0.70355656     0.77200
C2083       C  0.88226187  0.37486085  0.64942267     0.77700
C2084       C  0.87369687  0.44432355  0.72777649     0.76700
C2085       C  0.94749960  0.37723534  0.72183979     0.77000
C2086       C  0.87635650  0.30235559  0.72590592     0.78200
C2087       C  0.86819310  0.37613858  0.78906543     0.77200
Zn2088     Zn  0.84831260  0.39352123  0.99199215     1.49700
Zn2089     Zn  0.89178471  0.40549627  0.94908861     1.49400
Zn2090     Zn  0.89762816  0.35852140  0.98848548     1.49100
Zn2091     Zn  0.85576446  0.35551814  0.94552679     1.49500
O2092       O  0.87349704  0.37853502  0.96862147    -1.84000
O2093       O  0.85565093  0.43142861  0.99469491    -0.74700
O2094       O  0.93106471  0.40059916  0.95202965    -0.74500
O2095       O  0.89444131  0.36578703  0.52590382    -0.74000
O2096       O  0.88349265  0.44099131  0.96376893    -0.74700
O2097       O  0.85417234  0.38033357  0.52883998    -0.74300
O2098       O  0.93392494  0.36687533  0.97827542    -0.74900
O2099       O  0.86309445  0.31820003  0.95291607    -0.74300
O2100       O  0.88133860  0.40355825  0.91156377    -0.75000
O2101       O  0.89168638  0.32011391  0.98438480    -0.74400
O2102       O  0.86472505  0.36392094  0.90946099    -0.74900
O2103       O  0.81761815  0.36094674  0.94704048    -0.74800
O2104       O  0.81129769  0.38864474  0.97882387    -0.74600
C2105       C  0.86953072  0.44783007  0.98271988     0.77200
C2106       C  0.94453362  0.38434251  0.96460893     0.77700
C2107       C  0.87518853  0.37302465  0.53921483     0.76700
C2108       C  0.87756092  0.30718795  0.96918217     0.77000
C2109       C  0.87213515  0.38475557  0.89868980     0.78200
C2110       C  0.80273638  0.37505598  0.96034526     0.77200
Zn2111     Zn  0.85700529  0.64739705  0.55350993     1.49700
Zn2112     Zn  0.89274292  0.59876080  0.55000707     1.49400
Zn2113     Zn  0.84637054  0.60520273  0.51131200     1.49100
Zn2114     Zn  0.89535195  0.64258834  0.50699321     1.49500
O2115       O  0.87285988  0.62347068  0.53015995    -1.84000
O2116       O  0.86866037  0.64087283  0.58914946    -0.74700
O2117       O  0.88873935  0.56228159  0.53591936    -0.74500
O2118       O  0.81068063  0.61109730  0.52743032    -0.74000
O2119       O  0.88294257  0.60035895  0.58740708    -0.74700
O2120       O  0.81882543  0.64249550  0.55504200    -0.74300
O2121       O  0.85411562  0.56724550  0.51149474    -0.74900
O2122       O  0.88698260  0.63122149  0.97033100    -0.74300
O2123       O  0.93013754  0.60878971  0.54848032    -0.75000
O2124       O  0.84708456  0.61501194  0.97282707    -0.74400
O2125       O  0.93272629  0.63636960  0.51596036    -0.74900
O2126       O  0.88992824  0.68120624  0.50995813    -0.74800
O2127       O  0.86433792  0.68396682  0.54401494    -0.74600
C2128       C  0.87592402  0.62016414  0.60005104     0.77200
C2129       C  0.87179521  0.55310115  0.52081898     0.77700
C2130       C  0.80317220  0.62674429  0.54478787     0.76700
C2131       C  0.86679166  0.62208050  0.95974289     0.77000
C2132       C  0.94333157  0.62334977  0.53371978     0.78200
C2133       C  0.87752423  0.69455321  0.52628818     0.77200
Zn2134     Zn  0.89515695  0.60213336  0.75639390     1.49700
Zn2135     Zn  0.89038448  0.64057025  0.80270730     1.49400
Zn2136     Zn  0.84649629  0.63940528  0.75996287     1.49100
Zn2137     Zn  0.85355053  0.59210599  0.79971466     1.49500
O2138       O  0.87117832  0.61865594  0.77957128    -1.84000
O2139       O  0.93197083  0.60945866  0.76547802    -0.74700
O2140       O  0.88434517  0.67792421  0.79480522    -0.74500
O2141       O  0.85056351  0.63239750  0.72178590    -0.74000
O2142       O  0.92865698  0.63451817  0.79966555    -0.74700
O2143       O  0.88923886  0.61363105  0.72070186    -0.74300
O2144       O  0.85367990  0.67775203  0.76525545    -0.74900
O2145       O  0.81595437  0.60003904  0.80024208    -0.74300
O2146       O  0.87980649  0.63367991  0.83902434    -0.75000
O2147       O  0.80982360  0.63207473  0.77256222    -0.74400
O2148       O  0.86285640  0.59406846  0.83730804    -0.74900
O2149       O  0.85855638  0.55617701  0.78438517    -0.74800
O2150       O  0.88933030  0.56381825  0.75544552    -0.74600
C2151       C  0.94227763  0.62228547  0.78344726     0.77200
C2152       C  0.86931470  0.68985640  0.77972130     0.77700
C2153       C  0.86992804  0.62347961  0.70947839     0.76700
C2154       C  0.80120572  0.61615875  0.78926950     0.77000
C2155       C  0.87055211  0.61365485  0.84993948     0.78200
C2156       C  0.87373536  0.54847929  0.76671082     0.77200
Zn2157     Zn  0.60271632  0.60283829  0.61426209     1.49700
Zn2158     Zn  0.65132437  0.64002479  0.61206656     1.49400
Zn2159     Zn  0.64512010  0.59423646  0.57179682     1.49100
Zn2160     Zn  0.60766178  0.64374838  0.56970108     1.49500
O2161       O  0.62674124  0.62038297  0.59164271    -1.84000
O2162       O  0.60686255  0.61617098  0.64968681    -0.74700
O2163       O  0.68777112  0.63569728  0.59756320    -0.74500
O2164       O  0.64077661  0.55775637  0.58720725    -0.74000
O2165       O  0.64802206  0.62862691  0.64922296    -0.74700
O2166       O  0.61141667  0.56494622  0.61737420    -0.74300
O2167       O  0.68293141  0.60274468  0.57093200    -0.74900
O2168       O  0.61752703  0.63638991  0.53316641    -0.74300
O2169       O  0.64377145  0.67859143  0.61027876    -0.75000
O2170       O  0.63578816  0.59744188  0.53435205    -0.74400
O2171       O  0.61559011  0.68151035  0.57848520    -0.74900
O2172       O  0.56899364  0.63732495  0.57289767    -0.74800
O2173       O  0.56554380  0.60727351  0.60316324    -0.74600
C2174       C  0.62756854  0.62194043  0.66137595     0.77200
C2175       C  0.69693423  0.62018585  0.58093446     0.77700
C2176       C  0.62695306  0.54978488  0.60597608     0.76700
C2177       C  0.62743821  0.61694616  0.52188728     0.77000
C2178       C  0.62988839  0.69211114  0.59532224     0.78200
C2179       C  0.55526970  0.62216474  0.58668165     0.77200
Zn2180     Zn  0.60717800  0.64447008  0.82032483     1.49700
Zn2181     Zn  0.64233003  0.59499759  0.81989059     1.49400
Zn2182     Zn  0.65315604  0.63977542  0.86090716     1.49100
Zn2183     Zn  0.60351745  0.60416162  0.86520449     1.49500
O2184       O  0.62677025  0.62112498  0.84161993    -1.84000
O2185       O  0.61506034  0.63798058  0.78334643    -0.74700
O2186       O  0.67988662  0.60231200  0.81669983    -0.74500
O2187       O  0.64691994  0.67882127  0.85768972    -0.74000
O2188       O  0.63023392  0.59776774  0.78352367    -0.74700
O2189       O  0.61580992  0.68123807  0.82859044    -0.74300
O2190       O  0.68892524  0.63190740  0.84595048    -0.74900
O2191       O  0.61053490  0.61460936  0.90099785    -0.74300
O2192       O  0.63801366  0.55888275  0.83466820    -0.75000
O2193       O  0.65082988  0.62948492  0.89872004    -0.74400
O2194       O  0.60939005  0.56619468  0.86557409    -0.74900
O2195       O  0.56654292  0.61073832  0.85690058    -0.74800
O2196       O  0.56887521  0.63967110  0.82553926    -0.74600
C2197       C  0.62278870  0.61789718  0.77161511     0.77200
C2198       C  0.69596360  0.61699883  0.82780458     0.77700
C2199       C  0.63163347  0.69203686  0.84374014     0.76700
C2200       C  0.63146234  0.62132183  0.91173342     0.77000
C2201       C  0.62399788  0.55099197  0.85322398     0.78200
C2202       C  0.55574930  0.62552121  0.84076085     0.77200
Zn2203     Zn  0.64978791  0.34915376  0.67742742     1.49700
Zn2204     Zn  0.60809334  0.35496337  0.63513414     1.49400
Zn2205     Zn  0.61415207  0.39958606  0.67758020     1.49100
Zn2206     Zn  0.65753729  0.39179190  0.63441928     1.49500
O2207       O  0.63217791  0.37412381  0.65618258    -1.84000
O2208       O  0.64190995  0.31224965  0.66842334    -0.74700
O2209       O  0.57197498  0.36451326  0.64401404    -0.74500
O2210       O  0.62257441  0.39343245  0.71543099    -0.74000
O2211       O  0.61128955  0.31619863  0.63915949    -0.74700
O2212       O  0.64138397  0.35485162  0.71414872    -0.74300
O2213       O  0.57535742  0.39513173  0.67355421    -0.74900
O2214       O  0.65003398  0.42992484  0.63340849    -0.74300
O2215       O  0.61384060  0.36387532  0.59832023    -0.75000
O2216       O  0.62197563  0.43655792  0.66496856    -0.74400
O2217       O  0.65338122  0.38119413  0.59730624    -0.74900
O2218       O  0.69389360  0.38715962  0.64865393    -0.74800
O2219       O  0.68758235  0.35477721  0.67598123    -0.74600
C2220       C  0.62580057  0.30228313  0.65305242     0.77200
C2221       C  0.56174754  0.38069854  0.65918592     0.77700
C2222       C  0.63218791  0.37372661  0.72669812     0.76700
C2223       C  0.63560874  0.44497777  0.64624578     0.77000
C2224       C  0.63311862  0.37301586  0.58607331     0.78200
C2225       C  0.70227376  0.37145372  0.66551614     0.77200
Zn2226     Zn  0.65486743  0.35501566  0.88975891     1.49700
Zn2227     Zn  0.60723135  0.39225579  0.88136332     1.49400
Zn2228     Zn  0.60678614  0.35510518  0.92850258     1.49100
Zn2229     Zn  0.64500821  0.40355292  0.92733631     1.49500
O2230       O  0.62882388  0.37638370  0.90680473    -1.84000
O2231       O  0.65320279  0.36041299  0.85075886    -0.74700
O2232       O  0.56963775  0.38815926  0.88922602    -0.74500
O2233       O  0.61230376  0.31750147  0.92104180    -0.74000
O2234       O  0.61470083  0.37909079  0.84657692    -0.74700
O2235       O  0.64748521  0.31699804  0.89680448    -0.74300
O2236       O  0.56887032  0.36231894  0.92305673    -0.74900
O2237       O  0.63391234  0.40080358  0.96442668    -0.74300
O2238       O  0.61433513  0.42978787  0.87894871    -0.75000
O2239       O  0.61552406  0.36176181  0.96527938    -0.74400
O2240       O  0.63854787  0.43968645  0.91231429    -0.74900
O2241       O  0.68333395  0.39668925  0.92965274    -0.74800
O2242       O  0.69051985  0.36280688  0.90455734    -0.74600
C2243       C  0.63479810  0.36897474  0.83692317     0.77200
C2244       C  0.55720763  0.37573469  0.90631359     0.77700
C2245       C  0.62956109  0.30508402  0.90885527     0.76700
C2246       C  0.62522698  0.38122568  0.97664366     0.77000
C2247       C  0.62625778  0.44636980  0.89226760     0.78200
C2248       C  0.69843027  0.37953063  0.92065891     0.77200
Zn2249     Zn  0.10665741  0.64880747  0.55388444     1.49700
Zn2250     Zn  0.10177740  0.60673920  0.51059645     1.49400
Zn2251     Zn  0.15194680  0.64300987  0.51258206     1.49100
Zn2252     Zn  0.14241481  0.59813877  0.55414769     1.49500
O2253       O  0.12588126  0.62432638  0.53283018    -1.84000
O2254       O  0.06800955  0.64340369  0.55113804    -0.74700
O2255       O  0.10562513  0.61910412  0.97482512    -0.74500
O2256       O  0.14593038  0.68192423  0.51453268    -0.74000
O2257       O  0.06496258  0.61400371  0.52046001    -0.74700
O2258       O  0.11467086  0.68580380  0.54356646    -0.74300
O2259       O  0.14469063  0.63747484  0.97439834    -0.74900
O2260       O  0.18072533  0.60457133  0.55533687    -0.74300
O2261       O  0.10732653  0.56819645  0.51010821    -0.75000
O2262       O  0.18798188  0.63652446  0.52758929    -0.74400
O2263       O  0.13652136  0.56135135  0.54029828    -0.74900
O2264       O  0.13211331  0.60334790  0.59119102    -0.74800
O2265       O  0.11580024  0.64317642  0.59075697    -0.74600
C2266       C  0.05451701  0.62878179  0.53691741     0.77200
C2267       C  0.12500187  0.62837007  0.96287569     0.77700
C2268       C  0.13063962  0.69585656  0.52775616     0.76700
C2269       C  0.19585992  0.62086082  0.54477552     0.77000
C2270       C  0.12222820  0.55307060  0.52222095     0.78200
C2271       C  0.12444611  0.62363020  0.60282537     0.77200
Zn2272     Zn  0.10258847  0.60740059  0.75934757     1.49700
Zn2273     Zn  0.14131858  0.59884303  0.80461707     1.49400
Zn2274     Zn  0.15052398  0.64553523  0.76430608     1.49100
Zn2275     Zn  0.10427756  0.64638274  0.80459264     1.49500
O2276       O  0.12509116  0.62466655  0.78296208    -1.84000
O2277       O  0.11027311  0.56938430  0.75782072    -0.74700
O2278       O  0.17902979  0.60778723  0.80814820    -0.74500
O2279       O  0.14890578  0.63627030  0.72611994    -0.74000
O2280       O  0.13881403  0.56272961  0.78873125    -0.74700
O2281       O  0.10915212  0.62000335  0.72419632    -0.74300
O2282       O  0.18649736  0.63902946  0.77955363    -0.74900
O2283       O  0.10893386  0.68356972  0.79572135    -0.74300
O2284       O  0.12685837  0.60051854  0.84080554    -0.75000
O2285       O  0.14171772  0.68408519  0.76809396    -0.74400
O2286       O  0.11458955  0.64144046  0.84084841    -0.74900
O2287       O  0.06632408  0.63830976  0.80152790    -0.74800
O2288       O  0.06523092  0.61262291  0.76771074    -0.74600
C2289       C  0.12552719  0.55459486  0.76990220     0.77200
C2290       C  0.19425861  0.62376993  0.79718251     0.77700
C2291       C  0.12970424  0.62784639  0.71325017     0.76700
C2292       C  0.12461710  0.69583515  0.78135156     0.77000
C2293       C  0.12059037  0.62100737  0.85286972     0.78200
C2294       C  0.05377415  0.62512023  0.78527716     0.77200
Zn2295     Zn  0.14908351  0.35780372  0.69404500     1.49700
Zn2296     Zn  0.11046918  0.40570380  0.69867398     1.49400
Zn2297     Zn  0.11030285  0.36115526  0.74038333     1.49100
Zn2298     Zn  0.15871406  0.39896941  0.73762777     1.49500
O2299       O  0.13213941  0.38118739  0.71755275    -1.84000
O2300       O  0.13691114  0.36421595  0.65877842    -0.74700
O2301       O  0.07225109  0.39711109  0.70371706    -0.74500
O2302       O  0.11589599  0.32266566  0.73615246    -0.74000
O2303       O  0.11738892  0.40247046  0.66014466    -0.74700
O2304       O  0.14308844  0.32028095  0.70317981    -0.74300
O2305       O  0.07279598  0.36825225  0.73491720    -0.74900
O2306       O  0.15659313  0.38866028  0.77542919    -0.55100
O2307       O  0.11635172  0.44217250  0.71318594    -0.75000
O2308       O  0.11752995  0.37077038  0.77618879    -0.74400
O2309       O  0.15029180  0.43686121  0.73872563    -0.74900
O2310       O  0.19479182  0.39444225  0.72151170    -0.74800
O2311       O  0.18697977  0.36511829  0.69154020    -0.74600
C2312       C  0.12650849  0.38334093  0.64760057     0.77200
C2313       C  0.06034307  0.38228580  0.71936511     0.77700
C2314       C  0.12922856  0.30953061  0.72036973     0.76700
C2315       C  0.13691540  0.38013801  0.78772554     0.77000
C2316       C  0.13270158  0.45100608  0.72922225     0.78200
C2317       C  0.20235424  0.38039010  0.70288263     0.77200
Zn2318     Zn  0.14465279  0.35715570  0.94410680     1.49700
Zn2319     Zn  0.15362307  0.39699105  0.98911388     1.49400
Zn2320     Zn  0.10796912  0.40627800  0.94870644     1.49100
Zn2321     Zn  0.10489555  0.35918960  0.98883445     1.49500
O2322       O  0.12766812  0.38023098  0.96768428    -1.84000
O2323       O  0.18280804  0.36247532  0.94452461    -0.74700
O2324       O  0.14635392  0.43514552  0.99101753    -0.74500
O2325       O  0.11558722  0.40391554  0.91019906    -0.74000
O2326       O  0.19008579  0.39219021  0.97413862    -0.74700
O2327       O  0.13531755  0.36582772  0.90858689    -0.74300
O2328       O  0.11474926  0.44220538  0.96325573    -0.74900
O2329       O  0.06754013  0.36582708  0.97983270    -0.74300
O2330       O  0.15202005  0.38397662  0.52507436    -0.75000
O2331       O  0.06973399  0.39976151  0.95373080    -0.74400
O2332       O  0.11195689  0.36823144  0.52588383    -0.74900
O2333       O  0.11284562  0.32067055  0.98562149    -0.74800
O2334       O  0.13703489  0.31960275  0.95082049    -0.74600
C2335       C  0.19810489  0.37765840  0.95607602     0.77200
C2336       C  0.13018002  0.45019259  0.98047397     0.77700
C2337       C  0.12548982  0.38529967  0.89751849     0.76700
C2338       C  0.05660796  0.38311658  0.96630670     0.77000
C2339       C  0.13197610  0.37651641  0.53737973     0.78200
C2340       C  0.12529066  0.30787474  0.96881982     0.77200
Zn2341     Zn  0.40109273  0.40207315  0.63290844     1.49700
Zn2342     Zn  0.36020973  0.40696592  0.67722393     1.49400
Zn2343     Zn  0.35351678  0.36251987  0.63496241     1.49100
Zn2344     Zn  0.39958236  0.35908821  0.67565340     1.49500
O2345       O  0.37836927  0.38241502  0.65526001    -1.84000
O2346       O  0.39238817  0.43952360  0.63304785    -0.74700
O2347       O  0.32261196  0.39874952  0.67744302    -0.74500
O2348       O  0.35787985  0.37149156  0.59719642    -0.74000
O2349       O  0.36409903  0.44441072  0.66469916    -0.74700
O2350       O  0.39613873  0.39155777  0.59662200    -0.74300
O2351       O  0.31646837  0.36833623  0.64812723    -0.74900
O2352       O  0.39226240  0.32158633  0.66702140    -0.74300
O2353       O  0.36951272  0.40122214  0.71427259    -0.75000
O2354       O  0.36089826  0.32402376  0.63830523    -0.74400
O2355       O  0.39215120  0.36485419  0.71296071    -0.74900
O2356       O  0.43769385  0.36570987  0.67011914    -0.74800
O2357       O  0.43835273  0.39827112  0.64251619    -0.74600
C2358       C  0.37736119  0.45364699  0.64614477     0.77200
C2359       C  0.30793905  0.38304966  0.66580273     0.77700
C2360       C  0.37702316  0.38146282  0.58516047     0.76700
C2361       C  0.37650091  0.31075500  0.65175983     0.77000
C2362       C  0.38050774  0.38237383  0.72555785     0.78200
C2363       C  0.45008144  0.38239604  0.65693061     0.77200
Zn2364     Zn  0.35811130  0.35400425  0.93022678     1.49700
Zn2365     Zn  0.39482382  0.40339969  0.92328259     1.49400
Zn2366     Zn  0.39679890  0.35611305  0.88399175     1.49100
Zn2367     Zn  0.34823064  0.39310809  0.88455361     1.49500
O2368       O  0.37457313  0.37685916  0.90559611    -1.84000
O2369       O  0.37049205  0.36192070  0.96547521    -0.74700
O2370       O  0.43297835  0.39720201  0.91745454    -0.74500
O2371       O  0.39017201  0.31795983  0.88841375    -0.74000
O2372       O  0.38885229  0.40080791  0.96185895    -0.74700
O2373       O  0.36409376  0.31635425  0.92219009    -0.74300
O2374       O  0.43392608  0.36286394  0.89212675    -0.74900
O2375       O  0.35135387  0.38191692  0.84745987    -0.74300
O2376       O  0.38712147  0.43928732  0.90874963    -0.75000
O2377       O  0.39091176  0.36496212  0.84724057    -0.74400
O2378       O  0.35537531  0.43094938  0.88159788    -0.74900
O2379       O  0.31242834  0.38888129  0.90080785    -0.74800
O2380       O  0.31995725  0.36048923  0.93169053    -0.74600
C2381       C  0.38048881  0.38197021  0.97547916     0.77200
C2382       C  0.44547406  0.38010512  0.90509626     0.77700
C2383       C  0.37704037  0.30513231  0.90472621     0.76700
C2384       C  0.37136485  0.37387204  0.83556337     0.77000
C2385       C  0.37131357  0.44661498  0.89157048     0.78200
C2386       C  0.30460475  0.37536513  0.91981788     0.77200
Zn2387     Zn  0.34639479  0.61001755  0.61337329     1.49700
Zn2388     Zn  0.39620071  0.64575196  0.61097269     1.49400
Zn2389     Zn  0.38996809  0.60049461  0.57023983     1.49100
Zn2390     Zn  0.35262028  0.64954776  0.56855012     1.49500
O2391       O  0.37154183  0.62634457  0.59061198    -1.84000
O2392       O  0.35051363  0.62239430  0.64963802    -0.74700
O2393       O  0.43284195  0.63666474  0.60137928    -0.74500
O2394       O  0.38422551  0.56460827  0.58638662    -0.74000
O2395       O  0.39073239  0.63790812  0.64830269    -0.74700
O2396       O  0.35448780  0.57249617  0.61623200    -0.74300
O2397       O  0.42896860  0.60751621  0.57070227    -0.74900
O2398       O  0.36127608  0.64261368  0.53202552    -0.74300
O2399       O  0.39170942  0.68428901  0.60566887    -0.75000
O2400       O  0.37869522  0.60319317  0.53279656    -0.74400
O2401       O  0.36034770  0.68650397  0.57691487    -0.74900
O2402       O  0.31436521  0.64341376  0.57030854    -0.74800
O2403       O  0.30955036  0.61326197  0.60028597    -0.74600
C2404       C  0.37102186  0.62997759  0.66076791     0.77200
C2405       C  0.44301475  0.62196599  0.58467579     0.77700
C2406       C  0.36991359  0.55715754  0.60502715     0.76700
C2407       C  0.36947006  0.62253835  0.52065134     0.77000
C2408       C  0.37650270  0.69739771  0.59167263     0.78200
C2409       C  0.30026970  0.62762322  0.58279434     0.77200
Zn2410     Zn  0.39534274  0.60392637  0.86364978     1.49700
Zn2411     Zn  0.34723421  0.64191163  0.85951775     1.49400
Zn2412     Zn  0.39351550  0.64466619  0.81894626     1.49100
Zn2413     Zn  0.35489871  0.59584348  0.81921878     1.49500
O2414       O  0.37256679  0.62164749  0.84023633    -1.84000
O2415       O  0.38845824  0.61500010  0.89944518    -0.74700
O2416       O  0.35535273  0.68020719  0.85615407    -0.74500
O2417       O  0.43173071  0.63894240  0.82397679    -0.74000
O2418       O  0.34961702  0.63339003  0.89770065    -0.74700
O2419       O  0.43274222  0.61006845  0.85539721    -0.74300
O2420       O  0.38648857  0.68200965  0.82686596    -0.74900
O2421       O  0.36484621  0.60065861  0.78174888    -0.74300
O2422       O  0.31094353  0.63624299  0.84486734    -0.75000
O2423       O  0.38540187  0.63867081  0.78221026    -0.74400
O2424       O  0.31651355  0.60235215  0.81976982    -0.74900
O2425       O  0.36063568  0.55906584  0.83257500    -0.74800
O2426       O  0.38864382  0.56591245  0.86387185    -0.74600
C2427       C  0.36869145  0.62452331  0.91038142     0.77200
C2428       C  0.37108496  0.69314757  0.84228534     0.77700
C2429       C  0.44424923  0.62470358  0.83938869     0.76700
C2430       C  0.37492086  0.62006551  0.77023991     0.77000
C2431       C  0.30189767  0.61957588  0.82929444     0.78200
C2432       C  0.37434376  0.55080590  0.85106055     0.77200
C2433       C  0.35071871  0.60976131  0.95253659    -0.01800
C2434       C  0.36845110  0.62506201  0.93856442     0.07900
C2435       C  0.38764063  0.63919689  0.95154316    -0.01900
C2436       C  0.38949647  0.63757615  0.97828004    -0.01900
C2437       C  0.37193662  0.62211706  0.99225952     0.08000
C2438       C  0.35213444  0.60872438  0.97940495    -0.02100
Br2439     Br  0.32605010  0.59031539  0.99870941    -0.00600
Br2440     Br  0.32525639  0.58937162  0.93479300    -0.00700
Br2441     Br  0.41767986  0.65000944  0.49767456    -0.00700
Br2442     Br  0.41084244  0.66159327  0.93271631    -0.00600
C2443       C  0.35515047  0.64208876  0.70430737    -0.01800
C2444       C  0.37246031  0.62813569  0.68881843     0.07900
C2445       C  0.39060910  0.61136987  0.70015102    -0.01900
C2446       C  0.39094724  0.60807162  0.72682640    -0.01900
C2447       C  0.37357557  0.62194126  0.74225047     0.08000
C2448       C  0.35587523  0.63916793  0.73101002    -0.02100
Br2449     Br  0.33260587  0.65879749  0.75230746    -0.00600
Br2450     Br  0.33131933  0.66610119  0.68900644    -0.00700
Br2451     Br  0.41545805  0.58493927  0.74235586    -0.00700
Br2452     Br  0.41471861  0.59242703  0.67916058    -0.00600
C2453       C  0.39598277  0.50879470  0.86095784    -0.01800
C2454       C  0.37308734  0.52335634  0.85909066     0.07900
C2455       C  0.34957299  0.51271966  0.86803798    -0.01900
C2456       C  0.34905331  0.48787131  0.87918921    -0.01900
C2457       C  0.37209960  0.47351623  0.88165343     0.08000
C2458       C  0.39551959  0.48397094  0.87212523    -0.02100
Br2459     Br  0.42685227  0.46379185  0.87284895    -0.00600
Br2460     Br  0.42792017  0.52258228  0.84726091    -0.00700
Br2461     Br  0.31678561  0.47406339  0.89211773    -0.00700
Br2462     Br  0.31822367  0.53279676  0.86645639    -0.00600
C2463       C  0.37480961  0.35562408  0.76562838    -0.01800
C2464       C  0.37875242  0.38014256  0.75388840     0.07900
C2465       C  0.37996336  0.40247664  0.76942433    -0.01900
C2466       C  0.37662576  0.40036402  0.79606744    -0.01900
C2467       C  0.37272094  0.37598559  0.80751556     0.08000
C2468       C  0.37236313  0.35362837  0.79236670    -0.02100
Br2469     Br  0.36826224  0.32020392  0.80848607    -0.00600
Br2470     Br  0.37121920  0.32447138  0.74558366    -0.00700
Br2471     Br  0.37878347  0.43082248  0.81723273    -0.00700
Br2472     Br  0.38787158  0.43597850  0.75483838    -0.00600
C2473       C  0.36879314  0.40352423  0.51673416    -0.01800
C2474       C  0.38073238  0.38310470  0.50335722     0.07900
C2475       C  0.39162010  0.36229194  0.51705821    -0.01900
C2476       C  0.38965404  0.36139964  0.54384940    -0.01900
C2477       C  0.37739362  0.38157231  0.55708659     0.08000
C2478       C  0.36738590  0.40285037  0.54359443    -0.02100
Br2479     Br  0.35173574  0.43102343  0.56208207    -0.00600
Br2480     Br  0.35472015  0.43223014  0.99855055    -0.00700
Br2481     Br  0.40368454  0.33254670  0.56261042    -0.00700
Br2482     Br  0.41036157  0.33557586  0.49924983    -0.00600
C2483       C  0.39690364  0.49694049  0.63667036    -0.01800
C2484       C  0.37477282  0.48102162  0.63829282     0.07900
C2485       C  0.35098375  0.49017418  0.62892087    -0.01900
C2486       C  0.34951560  0.51482349  0.61745313    -0.01900
C2487       C  0.37183226  0.53046008  0.61516698     0.08000
C2488       C  0.39540480  0.52162103  0.62533501    -0.02100
Br2489     Br  0.42534790  0.54391351  0.62528511    -0.00600
Br2490     Br  0.42918866  0.48516762  0.65078547    -0.00700
Br2491     Br  0.31702376  0.52676823  0.60401302    -0.00700
Br2492     Br  0.32063746  0.46838602  0.63042134    -0.00600
C2493       C  0.24607850  0.37803451  0.96459331    -0.01800
C2494       C  0.22545759  0.37876948  0.94714917     0.07900
C2495       C  0.23096436  0.37976541  0.92061330    -0.01900
C2496       C  0.25665511  0.37841583  0.91162680    -0.01900
C2497       C  0.27734541  0.37728551  0.92905305     0.08000
C2498       C  0.27185953  0.37787122  0.95565346    -0.02100
Br2499     Br  0.29946038  0.37979036  0.98035412    -0.00600
Br2500     Br  0.23868240  0.37556558  0.49927318    -0.00700
Br2501     Br  0.26300736  0.37670574  0.87525005    -0.00700
Br2502     Br  0.20342946  0.38425562  0.89614463    -0.00600
C2503       C  0.14156358  0.40463626  0.82903586    -0.01800
C2504       C  0.13549149  0.38148402  0.81600728     0.07900
C2505       C  0.12464349  0.36051360  0.82979418    -0.01900
C2506       C  0.11928360  0.36289899  0.85599620    -0.01900
C2507       C  0.12633586  0.38554766  0.86923849     0.08000
C2508       C  0.13737682  0.40649137  0.85564264    -0.02100
Br2509     Br  0.14757910  0.43748168  0.87343488    -0.00600
Br2510     Br  0.15450612  0.43439327  0.81052745    -0.00700
Br2511     Br  0.10091508  0.33536488  0.87351770    -0.00700
Br2512     Br  0.11818215  0.32770175  0.81328498    -0.00600
C2513       C  0.13606751  0.40356843  0.60482503    -0.01800
C2514       C  0.12588216  0.38281809  0.61930779     0.07900
C2515       C  0.11805121  0.35995312  0.60677015    -0.01900
C2516       C  0.12125200  0.35746409  0.58020537    -0.01900
C2517       C  0.13130871  0.37822303  0.56564919     0.08000
C2518       C  0.13871698  0.40132703  0.57809931    -0.02100
Br2519     Br  0.15198471  0.43041545  0.55875161    -0.00600
Br2520     Br  0.14738600  0.43483261  0.62152804    -0.00700
Br2521     Br  0.11344691  0.32475655  0.56413365    -0.00700
Br2522     Br  0.10182410  0.33214769  0.62579139    -0.00600
C2523       C  0.23474912  0.38887535  0.66790790    -0.01800
C2524       C  0.22944110  0.38177953  0.69355246     0.07900
C2525       C  0.24989749  0.37439876  0.70956034    -0.01900
C2526       C  0.27539925  0.37391955  0.70002306    -0.01900
C2527       C  0.28073609  0.38130253  0.67451886     0.08000
C2528       C  0.26035615  0.38881533  0.65849157    -0.02100
Br2529     Br  0.26775866  0.40019318  0.62407273    -0.00600
Br2530     Br  0.20708148  0.39977692  0.64585487    -0.00700
Br2531     Br  0.30303652  0.36204020  0.72170046    -0.00700
Br2532     Br  0.24284330  0.36390006  0.74429278    -0.00600
C2533       C  0.22863802  0.63103579  0.83009633    -0.01800
C2534       C  0.22175267  0.62397123  0.80504962     0.07900
C2535       C  0.24087277  0.61505102  0.78814331    -0.01900
C2536       C  0.26689016  0.61357950  0.79591718    -0.01900
C2537       C  0.27411079  0.62063342  0.82119388     0.08000
C2538       C  0.25453393  0.62906197  0.83829485    -0.02100
Br2539     Br  0.26228307  0.63619103  0.87365177    -0.00600
Br2540     Br  0.20243527  0.64396904  0.85310558    -0.00700
Br2541     Br  0.29204320  0.60223732  0.77092801    -0.00700
Br2542     Br  0.23093491  0.60356396  0.75448572    -0.00600
C2543       C  0.14871350  0.52117864  0.74412117    -0.01800
C2544       C  0.12829276  0.52767471  0.76083607     0.07900
C2545       C  0.10922151  0.50911103  0.76675981    -0.01900
C2546       C  0.11017308  0.48435906  0.75559567    -0.01900
C2547       C  0.13047880  0.47787604  0.73869756     0.08000
C2548       C  0.15003526  0.49620751  0.73341958    -0.02100
Br2549     Br  0.17846194  0.48711063  0.71128809    -0.00600
Br2550     Br  0.17454592  0.54677850  0.73546494    -0.00700
Br2551     Br  0.08428584  0.45888134  0.76445905    -0.00700
Br2552     Br  0.08230240  0.51747766  0.79088804    -0.00600
C2553       C  0.13918106  0.60708040  0.89533128    -0.01800
C2554       C  0.12088224  0.62166474  0.88130908     0.07900
C2555       C  0.10385266  0.63844375  0.89470271    -0.01900
C2556       C  0.10611417  0.64147572  0.92127047    -0.01900
C2557       C  0.12462304  0.62730491  0.93485575     0.08000
C2558       C  0.14073999  0.60976074  0.92201348    -0.02100
Br2559     Br  0.16412649  0.58839868  0.94140541    -0.00600
Br2560     Br  0.16295787  0.58365424  0.87876950    -0.00700
Br2561     Br  0.08397029  0.66538147  0.93927574    -0.00700
Br2562     Br  0.07605298  0.65634714  0.87757679    -0.00600
C2563       C  0.11715457  0.60388836  0.64601539    -0.01800
C2564       C  0.12620425  0.62474050  0.63105354     0.07900
C2565       C  0.13770256  0.64631640  0.64314535    -0.01900
C2566       C  0.13985708  0.64710471  0.66996298    -0.01900
C2567       C  0.13065939  0.62626293  0.68494245     0.08000
C2568       C  0.12006743  0.60427342  0.67268701    -0.02100
Br2569     Br  0.11063871  0.57368505  0.69205120    -0.00600
Br2570     Br  0.09871746  0.57557055  0.63030560    -0.00700
Br2571     Br  0.15473501  0.67724748  0.68588011    -0.00700
Br2572     Br  0.15095013  0.67494426  0.62318727    -0.00600
C2573       C  0.23016339  0.64363800  0.56969192    -0.01800
C2574       C  0.22274793  0.62257635  0.55427017     0.07900
C2575       C  0.24024489  0.60215673  0.55033660    -0.01900
C2576       C  0.26513642  0.60317509  0.56106145    -0.01900
C2577       C  0.27294724  0.62493400  0.57523878     0.08000
C2578       C  0.25536055  0.64512029  0.57964617    -0.02100
Br2579     Br  0.26564109  0.67436554  0.60003214    -0.00600
Br2580     Br  0.20525115  0.66954015  0.57876516    -0.00700
Br2581     Br  0.28883544  0.57497189  0.55586213    -0.00700
Br2582     Br  0.23042782  0.57309017  0.52971501    -0.00600
C2583       C  0.15047337  0.49342638  0.98911670    -0.01800
C2584       C  0.12852408  0.47721379  0.98968787     0.07900
C2585       C  0.10410514  0.48432618  0.50267995    -0.01900
C2586       C  0.10241468  0.50937563  0.51317995    -0.01900
C2587       C  0.12425254  0.52581159  0.51341649     0.08000
C2588       C  0.14933455  0.51846021  0.99966309    -0.02100
Br2589     Br  0.17905511  0.54089355  0.99709585    -0.00600
Br2590     Br  0.18182515  0.48170782  0.97279502    -0.00700
Br2591     Br  0.07022900  0.52085911  0.52766563    -0.00700
Br2592     Br  0.07510246  0.46085025  0.50566319    -0.00600
C2593       C  0.51472646  0.38130728  0.92917716    -0.01800
C2594       C  0.52862209  0.37683589  0.90631955     0.07900
C2595       C  0.51510697  0.37405756  0.88311972    -0.01900
C2596       C  0.48808506  0.37649426  0.88264503    -0.01900
C2597       C  0.47408295  0.38008260  0.90558022     0.08000
C2598       C  0.48753079  0.38255482  0.92887062    -0.02100
Br2599     Br  0.46890909  0.38664435  0.96070003    -0.00600
Br2600     Br  0.53278238  0.38667484  0.96094882    -0.00700
Br2601     Br  0.47058418  0.37647340  0.85008970    -0.00700
Br2602     Br  0.53320924  0.36511870  0.85195773    -0.00600
C2603       C  0.51901323  0.38009164  0.68208591    -0.01800
C2604       C  0.53332533  0.38294862  0.65927851     0.07900
C2605       C  0.52035268  0.38653708  0.63593738    -0.01900
C2606       C  0.49323280  0.38602123  0.63514058    -0.01900
C2607       C  0.47872228  0.38310632  0.65794508     0.08000
C2608       C  0.49179052  0.38061604  0.68151195    -0.02100
Br2609     Br  0.47273333  0.37879089  0.71331060    -0.00600
Br2610     Br  0.53662179  0.37391948  0.71394761    -0.00700
Br2611     Br  0.47644459  0.38744756  0.60224729    -0.00700
Br2612     Br  0.53976399  0.39293611  0.60486712    -0.00600
C2613       C  0.64353336  0.39310977  0.76926696    -0.01800
C2614       C  0.63318709  0.37237933  0.75502160     0.07900
C2615       C  0.62498383  0.34964963  0.76794449    -0.01900
C2616       C  0.62601285  0.34826385  0.79479104    -0.01900
C2617       C  0.63670935  0.36876788  0.80882427     0.08000
C2618       C  0.64555333  0.39111600  0.79602744    -0.02100
Br2619     Br  0.65974224  0.41937800  0.81554221    -0.00600
Br2620     Br  0.65582270  0.42403210  0.75234675    -0.00700
Br2621     Br  0.61118015  0.31902055  0.81253514    -0.00700
Br2622     Br  0.61124449  0.32054816  0.74925065    -0.00600
C2623       C  0.61620128  0.39545364  0.54758917    -0.01800
C2624       C  0.63110687  0.37535812  0.55815789     0.07900
C2625       C  0.64306935  0.35720878  0.54212150    -0.01900
C2626       C  0.64065262  0.35946859  0.51546327    -0.01900
C2627       C  0.62554087  0.37944778  0.50481159     0.08000
C2628       C  0.61332252  0.39745065  0.52094115    -0.02100
Br2629     Br  0.59355394  0.42431751  0.00564192    -0.00600
Br2630     Br  0.59978211  0.42028857  0.56977370    -0.00700
Br2631     Br  0.66353968  0.33811998  0.99394365    -0.00700
Br2632     Br  0.66196060  0.32879432  0.55682079    -0.00600
C2633       C  0.51412670  0.62222802  0.81680801    -0.01800
C2634       C  0.52729611  0.62631010  0.83997103     0.07900
C2635       C  0.51319086  0.63055546  0.86267274    -0.01900
C2636       C  0.48605956  0.63007974  0.86236882    -0.01900
C2637       C  0.47279534  0.62560677  0.83930947     0.08000
C2638       C  0.48691942  0.62197243  0.81645952    -0.02100
Br2639     Br  0.46919577  0.61517968  0.78484472    -0.00600
Br2640     Br  0.53328148  0.61548304  0.78575491    -0.00700
Br2641     Br  0.46720562  0.63680126  0.89356724    -0.00700
Br2642     Br  0.53097158  0.63839062  0.89411925    -0.00600
C2643       C  0.60240730  0.50882097  0.86220529    -0.01800
C2644       C  0.62509848  0.52384348  0.86170797     0.07900
C2645       C  0.64799666  0.51400852  0.87231500    -0.01900
C2646       C  0.64839378  0.48893154  0.88284683    -0.01900
C2647       C  0.62564465  0.47372448  0.88348353     0.08000
C2648       C  0.60248507  0.48408186  0.87343237    -0.02100
Br2649     Br  0.57018791  0.46531355  0.87617603    -0.00600
Br2650     Br  0.57127216  0.52206811  0.84682576    -0.00700
Br2651     Br  0.68055939  0.47550743  0.89535948    -0.00700
Br2652     Br  0.67857418  0.53545744  0.87362488    -0.00600
C2653       C  0.51286385  0.64556145  0.58548582    -0.01800
C2654       C  0.52669563  0.62218128  0.58383085     0.07900
C2655       C  0.51308243  0.59887110  0.57974027    -0.01900
C2656       C  0.48580057  0.59870533  0.57876604    -0.01900
C2657       C  0.47179809  0.62198716  0.58189146     0.08000
C2658       C  0.48567855  0.64553690  0.58398676    -0.02100
Br2659     Br  0.46775346  0.67826489  0.58327889    -0.00600
Br2660     Br  0.53095677  0.67769880  0.59154286    -0.00700
Br2661     Br  0.46815073  0.56620299  0.57369420    -0.00700
Br2662     Br  0.53190017  0.56710322  0.57471009    -0.00600
C2663       C  0.62061357  0.59564228  0.97904670    -0.01800
C2664       C  0.62895093  0.61672615  0.99390266     0.07900
C2665       C  0.64026297  0.63845616  0.98169225    -0.01900
C2666       C  0.64222618  0.63959537  0.95488994    -0.01900
C2667       C  0.63277278  0.61904397  0.93996009     0.08000
C2668       C  0.62277097  0.59666452  0.95223690    -0.02100
Br2669     Br  0.61301210  0.56662626  0.93254619    -0.00600
Br2670     Br  0.60475543  0.56584999  0.99516629    -0.00700
Br2671     Br  0.65716665  0.66988654  0.93892620    -0.00700
Br2672     Br  0.65188948  0.66910268  0.50095473    -0.00600
C2673       C  0.63984534  0.63949602  0.70444264    -0.01800
C2674       C  0.62749654  0.62034072  0.68965690     0.07900
C2675       C  0.61429908  0.59974035  0.70212540    -0.01900
C2676       C  0.61200746  0.59936571  0.72889936    -0.01900
C2677       C  0.62430378  0.61851216  0.74350435     0.08000
C2678       C  0.63887625  0.63807231  0.73124756    -0.02100
Br2679     Br  0.65897732  0.66208214  0.75119390    -0.00600
Br2680     Br  0.65721544  0.66851877  0.68848329    -0.00700
Br2681     Br  0.59106365  0.57320112  0.74550300    -0.00700
Br2682     Br  0.60066372  0.57082397  0.68304082    -0.00600
C2683       C  0.60904654  0.48269766  0.63152489    -0.01800
C2684       C  0.63347458  0.47242076  0.63771638     0.07900
C2685       C  0.65584457  0.48745802  0.63291342    -0.01900
C2686       C  0.65384581  0.51230862  0.62174619    -0.01900
C2687       C  0.62935270  0.52267614  0.61567421     0.08000
C2688       C  0.60697875  0.50774744  0.62095583    -0.02100
Br2689     Br  0.57322908  0.52095599  0.61264408    -0.00600
Br2690     Br  0.57828202  0.46175443  0.63571172    -0.00700
Br2691     Br  0.68482149  0.53252222  0.61604643    -0.00700
Br2692     Br  0.68928734  0.47448526  0.64279875    -0.00600
C2693       C  0.98498754  0.59989372  0.78416512    -0.01800
C2694       C  0.97073561  0.62305390  0.78532271     0.07900
C2695       C  0.98383086  0.64693995  0.78746448    -0.01900
C2696       C  0.01102104  0.64763446  0.78800744    -0.01900
C2697       C  0.02525392  0.62443324  0.78647353     0.08000
C2698       C  0.01210377  0.60056536  0.78482715    -0.02100
Br2699     Br  0.03106867  0.56846953  0.78440804    -0.00600
Br2700     Br  0.96751098  0.56693671  0.78247549    -0.00700
Br2701     Br  0.02859056  0.68065914  0.78894165    -0.00700
Br2702     Br  0.96474456  0.67900284  0.78771852    -0.00600
C2703       C  0.75997254  0.59331756  0.80067843    -0.01800
C2704       C  0.77370384  0.61672830  0.79731953     0.07900
C2705       C  0.76194672  0.64028114  0.80437071    -0.01900
C2706       C  0.73654897  0.64044106  0.81425077    -0.01900
C2707       C  0.72315427  0.61692975  0.81850909     0.08000
C2708       C  0.73513001  0.59333885  0.81172725    -0.02100
Br2709     Br  0.71827825  0.56055512  0.81842233    -0.00600
Br2710     Br  0.77476822  0.56097361  0.78937473    -0.00700
Br2711     Br  0.71981477  0.67320564  0.82036415    -0.00700
Br2712     Br  0.78104087  0.67240133  0.80219235    -0.00600
C2713       C  0.98639529  0.60259140  0.54123649    -0.01800
C2714       C  0.97164063  0.62516098  0.53727935     0.07900
C2715       C  0.98413316  0.64951975  0.53688516    -0.01900
C2716       C  0.01130375  0.65101563  0.53772591    -0.01900
C2717       C  0.02605667  0.62823211  0.53962805     0.08000
C2718       C  0.01341992  0.60428861  0.54290241    -0.02100
Br2719     Br  0.03315258  0.57392118  0.55129100    -0.00600
Br2720     Br  0.97018511  0.56893245  0.54327473    -0.00700
Br2721     Br  0.02806177  0.68427057  0.53561878    -0.00700
Br2722     Br  0.96411477  0.68101713  0.53665495    -0.00600
C2723       C  0.88807872  0.60291806  0.89289345    -0.01800
C2724       C  0.86835526  0.61368136  0.87798383     0.07900
C2725       C  0.84738549  0.62623863  0.88983940    -0.01900
C2726       C  0.84665032  0.62894876  0.91660814    -0.01900
C2727       C  0.86678476  0.61874951  0.93163357     0.08000
C2728       C  0.88719417  0.60516100  0.91966540    -0.02100
Br2729     Br  0.91350488  0.58854518  0.93984785    -0.00600
Br2730     Br  0.91656202  0.58558294  0.87638554    -0.00700
Br2731     Br  0.81880755  0.64792481  0.93237896    -0.00700
Br2732     Br  0.81974428  0.63981139  0.86918344    -0.00600
C2733       C  0.88916868  0.63858301  0.66836215    -0.01800
C2734       C  0.87035930  0.62374186  0.68139530     0.07900
C2735       C  0.85459894  0.60640063  0.66775994    -0.01900
C2736       C  0.85790316  0.60362168  0.64123684    -0.01900
C2737       C  0.87569903  0.61952541  0.62808822     0.08000
C2738       C  0.89148488  0.63684994  0.64168272    -0.02100
Br2739     Br  0.91725473  0.65716784  0.62378482    -0.00600
Br2740     Br  0.91170168  0.66140368  0.68704992    -0.00700
Br2741     Br  0.83844837  0.57770557  0.62304628    -0.00700
Br2742     Br  0.82883701  0.58608124  0.68545769    -0.00600
C2743       C  0.77028345  0.62706222  0.58059649    -0.01800
C2744       C  0.77591823  0.62626396  0.55404037     0.07900
C2745       C  0.75537102  0.62503171  0.53653960    -0.01900
C2746       C  0.72965408  0.62342641  0.54540824    -0.01900
C2747       C  0.72411228  0.62293592  0.57193041     0.08000
C2748       C  0.74455202  0.62516517  0.58944541    -0.02100
Br2749     Br  0.73755909  0.62424324  0.62574166    -0.00600
Br2750     Br  0.79754094  0.63008470  0.60546608    -0.00700
Br2751     Br  0.70202356  0.62345175  0.52080387    -0.00700
Br2752     Br  0.76219320  0.62755115  0.50027019    -0.00600
C2753       C  0.98644199  0.38506029  0.98813510    -0.01800
C2754       C  0.97321416  0.38593566  0.96460491     0.07900
C2755       C  0.98757004  0.38694031  0.94162719    -0.01900
C2756       C  0.01482348  0.38636080  0.94212480    -0.01900
C2757       C  0.02795950  0.38425693  0.96562822     0.08000
C2758       C  0.01359676  0.38378267  0.98864636    -0.02100
Br2759     Br  0.03126022  0.38841893  0.52139981    -0.00600
Br2760     Br  0.96752017  0.39315473  0.51956669    -0.00700
Br2761     Br  0.03398467  0.38694679  0.91032621    -0.00700
Br2762     Br  0.97013283  0.38751220  0.90928534    -0.00600
C2763       C  0.76010875  0.35393975  0.95107098    -0.01800
C2764       C  0.77528222  0.37657974  0.95260806     0.07900
C2765       C  0.76540150  0.40007267  0.94317122    -0.01900
C2766       C  0.74067810  0.40088413  0.93204800    -0.01900
C2767       C  0.72536067  0.37828019  0.93048942     0.08000
C2768       C  0.73517868  0.35479004  0.94032185    -0.02100
Br2769     Br  0.71419989  0.32381468  0.94032308    -0.00600
Br2770     Br  0.77336348  0.32176637  0.96430923    -0.00700
Br2771     Br  0.72875368  0.43278741  0.91734865    -0.00700
Br2772     Br  0.78648845  0.43094796  0.94383836    -0.00600
C2773       C  0.84702235  0.48630893  0.00216261    -0.01800
C2774       C  0.86977347  0.47516299  0.99179988     0.07900
C2775       C  0.89300046  0.48983251  0.99176861    -0.01900
C2776       C  0.89433551  0.51502508  0.50104764    -0.01900
C2777       C  0.87241658  0.52552227  0.51323972     0.08000
C2778       C  0.84993346  0.51037478  0.51590466    -0.02100
Br2779     Br  0.82087738  0.52368036  0.53513086    -0.00600
Br2780     Br  0.81421297  0.46830813  0.00114997    -0.00700
Br2781     Br  0.92481144  0.53612086  0.49595591    -0.00700
Br2782     Br  0.92521444  0.47511547  0.97997871    -0.00600
C2783       C  0.99144293  0.35616494  0.72559582    -0.01800
C2784       C  0.97642423  0.37860149  0.72168067     0.07900
C2785       C  0.98930991  0.40243624  0.71706338    -0.01900
C2786       C  0.01656586  0.40367751  0.71618298    -0.01900
C2787       C  0.03149358  0.38109848  0.71967375     0.08000
C2788       C  0.01864297  0.35729076  0.72431214    -0.02100
Br2789     Br  0.03787704  0.32537721  0.72758097    -0.00600
Br2790     Br  0.97524789  0.32314452  0.73174600    -0.00700
Br2791     Br  0.03310428  0.43699665  0.71160721    -0.00700
Br2792     Br  0.97006429  0.43419480  0.71335337    -0.00600
C2793       C  0.88966754  0.39205926  0.82861463    -0.01800
C2794       C  0.86797639  0.38043376  0.81696881     0.07900
C2795       C  0.84629759  0.37367077  0.83200825    -0.01900
C2796       C  0.84704313  0.37691653  0.85867883    -0.01900
C2797       C  0.86963820  0.38650060  0.87054053     0.08000
C2798       C  0.89033442  0.39542365  0.85523462    -0.02100
Br2799     Br  0.91990580  0.41207114  0.87029867    -0.00600
Br2800     Br  0.91861567  0.40394943  0.80816879    -0.00700
Br2801     Br  0.81639528  0.36951441  0.87877247    -0.00700
Br2802     Br  0.81609017  0.35848112  0.81648099    -0.00600
C2803       C  0.87432116  0.39734362  0.60754078    -0.01800
C2804       C  0.88259738  0.37521358  0.62110004     0.07900
C2805       C  0.88933168  0.35262879  0.60746144    -0.01900
C2806       C  0.88694512  0.35190056  0.58072131    -0.01900
C2807       C  0.87775799  0.37368375  0.56732740     0.08000
C2808       C  0.87231622  0.39666379  0.58074455    -0.02100
Br2809     Br  0.86379459  0.42790934  0.56231257    -0.00600
Br2810     Br  0.86409040  0.42833336  0.62540538    -0.00700
Br2811     Br  0.89594537  0.32068178  0.56265568    -0.00700
Br2812     Br  0.90257225  0.32259506  0.62512275    -0.00600
C2813       C  0.75024221  0.37467589  0.65776599    -0.01800
C2814       C  0.72915842  0.37323252  0.67484990     0.07900
C2815       C  0.73371962  0.37284156  0.70151833    -0.01900
C2816       C  0.75907504  0.37229572  0.71090450    -0.01900
C2817       C  0.78012276  0.37361774  0.69384875     0.08000
C2818       C  0.77563667  0.37550285  0.66726566    -0.02100
Br2819     Br  0.80416422  0.38030024  0.64370503    -0.00600
Br2820     Br  0.74461535  0.37395472  0.62135719    -0.00700
Br2821     Br  0.76480576  0.36805386  0.74713363    -0.00700
Br2822     Br  0.70540302  0.37418538  0.72573386    -0.00600
C2823       C  0.85339254  0.48800297  0.73132198    -0.01800
C2824       C  0.87455285  0.47160019  0.73600296     0.07900
C2825       C  0.89461127  0.48001000  0.75213135    -0.01900
C2826       C  0.89370832  0.50476371  0.76317207    -0.01900
C2827       C  0.87291662  0.52137231  0.75799655     0.08000
C2828       C  0.85263576  0.51287221  0.74221110    -0.02100
Br2829     Br  0.82389760  0.53540077  0.73539541    -0.00600
Br2830     Br  0.82562218  0.47644793  0.70968049    -0.00700
Br2831     Br  0.92007862  0.51540683  0.78675201    -0.00700
Br2832     Br  0.92255403  0.45704403  0.76050277    -0.00600
C2833       C  0.14920524  0.23820539  0.96124185    -0.01800
C2834       C  0.12841609  0.22399246  0.97154936     0.07900
C2835       C  0.10706602  0.23710633  0.98195709    -0.01900
C2836       C  0.10565430  0.26431450  0.98071782    -0.01900
C2837       C  0.12646445  0.27892303  0.97022504     0.08000
C2838       C  0.14855754  0.26547077  0.96092049    -0.02100
Br2839     Br  0.17880983  0.28362568  0.94826795    -0.00600
Br2840     Br  0.17833494  0.22005655  0.94666081    -0.00700
Br2841     Br  0.07249433  0.28064544  0.48698493    -0.00700
Br2842     Br  0.07682376  0.21732418  0.49344547    -0.00600
C2843       C  0.10765638  0.24093671  0.70715960    -0.01800
C2844       C  0.12509908  0.22665193  0.72208105     0.07900
C2845       C  0.14361646  0.23961331  0.73701117    -0.01900
C2846       C  0.14493466  0.26684554  0.73667145    -0.01900
C2847       C  0.12776954  0.28108092  0.72134928     0.08000
C2848       C  0.10913702  0.26809205  0.70662080    -0.02100
Br2849     Br  0.08603317  0.28758592  0.68523676    -0.00600
Br2850     Br  0.08177824  0.22316287  0.68741214    -0.00700
Br2851     Br  0.17051306  0.28471531  0.75668819    -0.00700
Br2852     Br  0.16719032  0.21997072  0.75772854    -0.00600
C2853       C  0.11252080  0.10688378  0.82724020    -0.01800
C2854       C  0.12807437  0.12615620  0.81572297     0.07900
C2855       C  0.14029436  0.14485027  0.83088947    -0.01900
C2856       C  0.13690296  0.14445183  0.85756322    -0.01900
C2857       C  0.12233204  0.12444739  0.86928490     0.08000
C2858       C  0.10981506  0.10589917  0.85400278    -0.02100
Br2859     Br  0.08724494  0.08051730  0.86958303    -0.00600
Br2860     Br  0.09490280  0.08183692  0.80622465    -0.00700
Br2861     Br  0.15187519  0.17179467  0.87775635    -0.00700
Br2862     Br  0.16120603  0.17132113  0.81489867    -0.00600
C2863       C  0.11745029  0.14855403  0.57940345    -0.01800
C2864       C  0.12802593  0.12773431  0.56575178     0.07900
C2865       C  0.13561218  0.10519360  0.57884446    -0.01900
C2866       C  0.13286059  0.10353601  0.60561413    -0.01900
C2867       C  0.12222201  0.12440934  0.61943126     0.08000
C2868       C  0.11439109  0.14689436  0.60611012    -0.02100
Br2869     Br  0.09816839  0.17507483  0.62414830    -0.00600
Br2870     Br  0.10701995  0.17929041  0.56123758    -0.00700
Br2871     Br  0.14475474  0.07303417  0.62323723    -0.00700
Br2872     Br  0.14965858  0.07650970  0.55985000    -0.00600
C2873       C  0.35305957  0.26306514  0.90289709    -0.01800
C2874       C  0.37679060  0.27655549  0.90341884     0.07900
C2875       C  0.40020776  0.26263533  0.90306960    -0.01900
C2876       C  0.39986434  0.23539628  0.90303978    -0.01900
C2877       C  0.37608743  0.22188814  0.90324398     0.08000
C2878       C  0.35269415  0.23585125  0.90286696    -0.02100
Br2879     Br  0.31998209  0.21781187  0.90114974    -0.00600
Br2880     Br  0.32093457  0.28185525  0.90082957    -0.00700
Br2881     Br  0.43213097  0.21675284  0.90438711    -0.00700
Br2882     Br  0.43291477  0.28074692  0.90403900    -0.00600
C2883       C  0.26855883  0.11652424  0.95360606    -0.01800
C2884       C  0.27450875  0.12124896  0.92758494     0.07900
C2885       C  0.25429477  0.12482239  0.91006510    -0.01900
C2886       C  0.22837487  0.12364652  0.91843674    -0.01900
C2887       C  0.22239481  0.11998334  0.94461996     0.08000
C2888       C  0.24263114  0.11609005  0.96208424    -0.02100
Br2889     Br  0.23438658  0.11163570  0.49914878    -0.00600
Br2890     Br  0.29585223  0.10935504  0.97762159    -0.00700
Br2891     Br  0.20122046  0.12757641  0.89375271    -0.00700
Br2892     Br  0.26211783  0.13312966  0.87484464    -0.00600
C2893       C  0.39910463  0.24091159  0.64552724    -0.01800
C2894       C  0.37573196  0.22700327  0.64948274     0.07900
C2895       C  0.35241457  0.24103015  0.65229922    -0.01900
C2896       C  0.35271851  0.26829246  0.65312123    -0.01900
C2897       C  0.37610844  0.28204447  0.64992157     0.08000
C2898       C  0.39915691  0.26823603  0.64541374    -0.02100
Br2899     Br  0.43083521  0.28683121  0.63812216    -0.00600
Br2900     Br  0.43161194  0.22307911  0.64136131    -0.00700
Br2901     Br  0.32106324  0.28669790  0.66024572    -0.00700
Br2902     Br  0.31949401  0.22326614  0.65363239    -0.00600
C2903       C  0.34955511  0.13697721  0.79399697    -0.01800
C2904       C  0.36848886  0.12383659  0.80806273     0.07900
C2905       C  0.38802271  0.10999254  0.79523143    -0.01900
C2906       C  0.38915348  0.10987811  0.76838888    -0.01900
C2907       C  0.37043412  0.12341193  0.75406733     0.08000
C2908       C  0.35052994  0.13697207  0.76712632    -0.02100
Br2909     Br  0.32397031  0.15552509  0.74886447    -0.00600
Br2910     Br  0.32266895  0.15576167  0.81167291    -0.00700
Br2911     Br  0.41755109  0.09234419  0.75176724    -0.00700
Br2912     Br  0.41274636  0.09010989  0.81448470    -0.00600
C2913       C  0.38490927  0.14419980  0.51677064    -0.01800
C2914       C  0.37761001  0.12100542  0.50448347     0.07900
C2915       C  0.36876310  0.09982453  0.51918820    -0.01900
C2916       C  0.36716946  0.10186890  0.54593547    -0.01900
C2917       C  0.37315328  0.12550135  0.55802609     0.08000
C2918       C  0.38200813  0.14666298  0.54334777    -0.02100
Br2919     Br  0.38873744  0.17962880  0.55935109    -0.00600
Br2920     Br  0.39901504  0.17182100  0.99707374    -0.00700
Br2921     Br  0.35789837  0.07175320  0.56596305    -0.00700
Br2922     Br  0.36087998  0.06598576  0.00318962    -0.00600
C2923       C  0.25431443  0.13071578  0.65919149    -0.01800
C2924       C  0.27460563  0.12353277  0.67537643     0.07900
C2925       C  0.26893791  0.11391445  0.69999978    -0.01900
C2926       C  0.24337379  0.11410693  0.70953183    -0.01900
C2927       C  0.22288006  0.12280270  0.69386220     0.08000
C2928       C  0.22853308  0.12951687  0.66798630    -0.02100
Br2929     Br  0.20135301  0.13526067  0.64334373    -0.00600
Br2930     Br  0.26200376  0.14302025  0.62510343    -0.00700
Br2931     Br  0.23738410  0.10290784  0.74430501    -0.00700
Br2932     Br  0.29627889  0.09896427  0.72011306    -0.00600
C2933       C  0.34846370  0.76305734  0.84300140    -0.01800
C2934       C  0.37217127  0.77656494  0.84433978     0.07900
C2935       C  0.39548274  0.76256163  0.84591417    -0.01900
C2936       C  0.39505255  0.73530956  0.84618574    -0.01900
C2937       C  0.37138920  0.72179789  0.84384078     0.08000
C2938       C  0.34809826  0.73583828  0.84222226    -0.02100
Br2939     Br  0.31563298  0.71803888  0.83723454    -0.00600
Br2940     Br  0.31621670  0.78175945  0.84319722    -0.00700
Br2941     Br  0.42698552  0.71663417  0.85078760    -0.00700
Br2942     Br  0.42828346  0.78055112  0.84607240    -0.00600
C2943       C  0.34656045  0.98793308  0.86597817    -0.01800
C2944       C  0.37009434  0.97488193  0.86157300     0.07900
C2945       C  0.39358234  0.98703346  0.86840356    -0.01900
C2946       C  0.39346163  0.01184530  0.87962445    -0.01900
C2947       C  0.36980982  0.02450989  0.88478543     0.08000
C2948       C  0.34636015  0.01217409  0.87812672    -0.02100
Br2949     Br  0.31349239  0.02770744  0.88670352    -0.00600
Br2950     Br  0.31434304  0.97335269  0.85405811    -0.00700
Br2951     Br  0.42601676  0.02871727  0.88671204    -0.00700
Br2952     Br  0.42613811  0.96953947  0.86334679    -0.00600
C2953       C  0.37644124  0.76691145  0.56891384    -0.01800
C2954       C  0.37467121  0.78064965  0.59217483     0.07900
C2955       C  0.37498708  0.76680529  0.61549323    -0.01900
C2956       C  0.37612839  0.73955950  0.61549120    -0.01900
C2957       C  0.37747468  0.72598193  0.59218064     0.08000
C2958       C  0.37844527  0.73982908  0.56897054    -0.02100
Br2959     Br  0.38404145  0.72181655  0.53707469    -0.00600
Br2960     Br  0.37471604  0.78466897  0.53651107    -0.00700
Br2961     Br  0.37498126  0.72094908  0.64752866    -0.00700
Br2962     Br  0.37502579  0.78495001  0.64762010    -0.00600
C2963       C  0.38310090  0.90196764  0.97693650    -0.01800
C2964       C  0.37206534  0.88302897  0.99307715     0.07900
C2965       C  0.35783194  0.86237382  0.98232807    -0.01900
C2966       C  0.35497163  0.86056803  0.95565399    -0.01900
C2967       C  0.36659127  0.87911372  0.93959532     0.08000
C2968       C  0.38038005  0.89998531  0.95025556    -0.02100
Br2969     Br  0.39556897  0.92587375  0.92812090    -0.00600
Br2970     Br  0.40327550  0.92974005  0.99126212    -0.00700
Br2971     Br  0.33538045  0.83259572  0.94092013    -0.00700
Br2972     Br  0.34286350  0.83572570  0.50294393    -0.00600
C2973       C  0.35938051  0.89624054  0.70302907    -0.01800
C2974       C  0.37304001  0.87685935  0.68983179     0.07900
C2975       C  0.39001507  0.86056453  0.70329007    -0.01900
C2976       C  0.39233696  0.86279179  0.72995906    -0.01900
C2977       C  0.37833282  0.88186178  0.74322453     0.08000
C2978       C  0.36236565  0.89903547  0.72962193    -0.02100
Br2979     Br  0.34466297  0.92641323  0.74738747    -0.00600
Br2980     Br  0.33719236  0.91944088  0.68443600    -0.00700
Br2981     Br  0.41549124  0.84037231  0.74838411    -0.00700
Br2982     Br  0.41024851  0.83527667  0.68513971    -0.00600
C2983       C  0.39804090  0.99424067  0.61545372    -0.01800
C2984       C  0.37572435  0.97867547  0.61309561     0.07900
C2985       C  0.35170738  0.98827929  0.62173365    -0.01900
C2986       C  0.35003556  0.01320134  0.63249164    -0.01900
C2987       C  0.37232390  0.02882562  0.63469437     0.08000
C2988       C  0.39633280  0.01924394  0.62602066    -0.02100
Br2989     Br  0.42678539  0.04087777  0.62718182    -0.00600
Br2990     Br  0.43092083  0.98173862  0.60325552    -0.00700
Br2991     Br  0.31730997  0.02545407  0.64542879    -0.00700
Br2992     Br  0.32119459  0.96672954  0.62030007    -0.00600
C2993       C  0.11867389  0.76507994  0.75709265    -0.01800
C2994       C  0.11969168  0.77920341  0.78020386     0.07900
C2995       C  0.12087427  0.76551342  0.80362725    -0.01900
C2996       C  0.12319507  0.73841776  0.80385153    -0.01900
C2997       C  0.12295061  0.72444740  0.78075644     0.08000
C2998       C  0.11970830  0.73781212  0.75750704    -0.02100
Br2999     Br  0.11472674  0.71865028  0.72639343    -0.00600
Br3000     Br  0.11670894  0.78259278  0.72454676    -0.00700
Br3001     Br  0.12750862  0.72059182  0.83608363    -0.00700
Br3002     Br  0.11748285  0.78338536  0.83583795    -0.00600
C3003       C  0.10148137  0.99013771  0.75442254    -0.01800
C3004       C  0.12440508  0.97867048  0.76353113     0.07900
C3005       C  0.14779236  0.99264207  0.76187029    -0.01900
C3006       C  0.14873798  0.01691445  0.74962955    -0.01900
C3007       C  0.12580836  0.02870320  0.74062331     0.08000
C3008       C  0.10204498  0.01528659  0.74367134    -0.02100
Br3009     Br  0.06984876  0.03156301  0.73454289    -0.00600
Br3010     Br  0.06934643  0.97106933  0.75563352    -0.00700
Br3011     Br  0.18216003  0.03293848  0.74410494    -0.00700
Br3012     Br  0.17857186  0.97902925  0.77772237    -0.00600
C3013       C  0.24264686  0.87906539  0.78355502    -0.01800
C3014       C  0.22221752  0.87971734  0.80141146     0.07900
C3015       C  0.22786949  0.88008458  0.82782946    -0.01900
C3016       C  0.25362565  0.87910400  0.83631666    -0.01900
C3017       C  0.27415074  0.87820869  0.81849476     0.08000
C3018       C  0.26847240  0.87852690  0.79200355    -0.02100
Br3019     Br  0.29584796  0.87900819  0.76678147    -0.00600
Br3020     Br  0.23531941  0.87732959  0.74744645    -0.00700
Br3021     Br  0.26037287  0.87735610  0.87255015    -0.00700
Br3022     Br  0.20036187  0.88260351  0.85281450    -0.00600
C3023       C  0.10919922  0.73821096  0.51810308    -0.01800
C3024       C  0.13152919  0.72445936  0.52519864     0.07900
C3025       C  0.15420123  0.73828067  0.53130033    -0.01900
C3026       C  0.15387829  0.76549177  0.53256302    -0.01900
C3027       C  0.13104925  0.77916933  0.52696431     0.08000
C3028       C  0.10890441  0.76545390  0.51905633    -0.02100
Br3029     Br  0.07852539  0.78402652  0.50840696    -0.00600
Br3030     Br  0.07972157  0.71973786  0.50510642    -0.00700
Br3031     Br  0.18438459  0.78387641  0.54357003    -0.00700
Br3032     Br  0.18574436  0.72009673  0.53830811    -0.00600
C3033       C  0.14216148  0.89910420  0.91990733    -0.01800
C3034       C  0.13218892  0.87749031  0.93321411     0.07900
C3035       C  0.11757435  0.85889600  0.92001657    -0.01900
C3036       C  0.11319519  0.86161931  0.89367898    -0.01900
C3037       C  0.12378360  0.88278315  0.88014850     0.08000
C3038       C  0.13799994  0.90177189  0.89340621    -0.02100
Br3039     Br  0.15191050  0.93130989  0.87536129    -0.00600
Br3040     Br  0.16107479  0.92525993  0.93825059    -0.00700
Br3041     Br  0.09106078  0.83726518  0.87639444    -0.00700
Br3042     Br  0.10309634  0.82984411  0.93819710    -0.00600
C3043       C  0.11881764  0.90124238  0.67109607    -0.01800
C3044       C  0.13023852  0.88005580  0.68359198     0.07900
C3045       C  0.14075660  0.85966800  0.66931420    -0.01900
C3046       C  0.13887335  0.85981727  0.64251826    -0.01900
C3047       C  0.12696629  0.88080688  0.62988106     0.08000
C3048       C  0.11723469  0.90168992  0.64427336    -0.02100
Br3049     Br  0.10045586  0.93030523  0.62746727    -0.00600
Br3050     Br  0.10529265  0.92962661  0.69090415    -0.00700
Br3051     Br  0.15339852  0.83149533  0.62331831    -0.00700
Br3052     Br  0.15828494  0.83191358  0.68665115    -0.00600
C3053       C  0.15042874  0.98883232  0.50429944    -0.01800
C3054       C  0.12790902  0.97707434  0.51430462     0.07900
C3055       C  0.10463501  0.99086946  0.51459871    -0.01900
C3056       C  0.10329125  0.01598394  0.00184762    -0.01900
C3057       C  0.12543759  0.02740885  0.99040088     0.08000
C3058       C  0.14919057  0.01389137  0.99105247    -0.02100
Br3059     Br  0.18055736  0.02980721  0.97834469    -0.00600
Br3060     Br  0.18284101  0.97053395  0.50507403    -0.00700
Br3061     Br  0.07001412  0.03264816  0.00064880    -0.00700
Br3062     Br  0.07567816  0.97764691  0.53385583    -0.00600
C3063       C  0.27260098  0.88310779  0.54481462    -0.01800
C3064       C  0.27794067  0.88189727  0.57135678     0.07900
C3065       C  0.25715038  0.88008546  0.58877155    -0.01900
C3066       C  0.23145406  0.87955894  0.57983704    -0.01900
C3067       C  0.22616792  0.88022060  0.55328381     0.08000
C3068       C  0.24694969  0.88181404  0.53586899    -0.02100
Br3069     Br  0.24031874  0.88383617  0.49964288    -0.00600
Br3070     Br  0.30022820  0.88669588  0.52013641    -0.00700
Br3071     Br  0.20357866  0.87773316  0.60443084    -0.00700
Br3072     Br  0.26367627  0.88020789  0.62506564    -0.00600
C3073       C  0.51357270  0.11581931  0.88515497    -0.01800
C3074       C  0.52659221  0.11854911  0.90862510     0.07900
C3075       C  0.51215948  0.12114457  0.93140584    -0.01900
C3076       C  0.48492684  0.12066189  0.93074487    -0.01900
C3077       C  0.47198992  0.11784164  0.90725293     0.08000
C3078       C  0.48642807  0.11541294  0.88449669    -0.02100
Br3079     Br  0.46911077  0.11033964  0.85234688    -0.00600
Br3080     Br  0.53274458  0.11180876  0.85369640    -0.00700
Br3081     Br  0.46537643  0.12538385  0.96189656    -0.00700
Br3082     Br  0.52958015  0.12739991  0.96326724    -0.00600
C3083       C  0.61931273  0.26253374  0.93047190    -0.01800
C3084       C  0.62841117  0.27623500  0.90866085     0.07900
C3085       C  0.63554906  0.26209512  0.88654514    -0.01900
C3086       C  0.63347862  0.23491645  0.88628636    -0.01900
C3087       C  0.62382986  0.22158872  0.90779767     0.08000
C3088       C  0.61642748  0.23547464  0.92971903    -0.02100
Br3089     Br  0.60120972  0.21738250  0.95851566    -0.00600
Br3090     Br  0.61249842  0.28002555  0.96241740    -0.00700
Br3091     Br  0.64497503  0.21574428  0.85672921    -0.00700
Br3092     Br  0.64777546  0.27930620  0.85600728    -0.00600
C3093       C  0.51240790  0.12204538  0.68459542    -0.01800
C3094       C  0.52600201  0.11548421  0.66206775     0.07900
C3095       C  0.51195224  0.10966841  0.63977750    -0.01900
C3096       C  0.48484411  0.11125690  0.63962206    -0.01900
C3097       C  0.47134682  0.11886882  0.66175386     0.08000
C3098       C  0.48514627  0.12385749  0.68438801    -0.02100
Br3099     Br  0.46680641  0.13459948  0.71466016    -0.00600
Br3100     Br  0.53109639  0.12979436  0.71541207    -0.00700
Br3101     Br  0.46605612  0.10189566  0.60917072    -0.00700
Br3102     Br  0.52958707  0.09825465  0.60951245    -0.00600
C3103       C  0.64412891  0.23236960  0.64235305    -0.01800
C3104       C  0.62209483  0.21944418  0.65190638     0.07900
C3105       C  0.60061216  0.23374738  0.66042974    -0.01900
C3106       C  0.60154262  0.26096913  0.66022268    -0.01900
C3107       C  0.62396598  0.27388442  0.65148713     0.08000
C3108       C  0.64511105  0.25954775  0.64222790    -0.02100
Br3109     Br  0.67525063  0.27721408  0.62895488    -0.00600
Br3110     Br  0.67270585  0.21271827  0.62887568    -0.00700
Br3111     Br  0.57274181  0.28055870  0.67334376    -0.00700
Br3112     Br  0.57046731  0.21599767  0.67357536    -0.00600
C3113       C  0.60929020  0.10417666  0.77264797    -0.01800
C3114       C  0.62745897  0.11744746  0.75711118     0.07900
C3115       C  0.64800022  0.13118473  0.76891417    -0.01900
C3116       C  0.64902463  0.13331648  0.79567508    -0.01900
C3117       C  0.63058040  0.12054737  0.81094212     0.08000
C3118       C  0.61134078  0.10521578  0.79942860    -0.02100
Br3119     Br  0.58850736  0.08451669  0.82048197    -0.00600
Br3120     Br  0.58066204  0.08553465  0.75784548    -0.00700
Br3121     Br  0.67508640  0.15466406  0.81149627    -0.00700
Br3122     Br  0.67596030  0.14605504  0.74898801    -0.00600
C3123       C  0.60616286  0.10777662  0.52160225    -0.01800
C3124       C  0.62716685  0.11606706  0.50649403     0.07900
C3125       C  0.65044911  0.12372065  0.51846290    -0.01900
C3126       C  0.65187484  0.12511056  0.54530587    -0.01900
C3127       C  0.63051626  0.11745262  0.56040196     0.08000
C3128       C  0.60822320  0.10761149  0.54832659    -0.02100
Br3129     Br  0.58093744  0.09205779  0.56811801    -0.00600
Br3130     Br  0.57381740  0.09812661  0.50605803    -0.00700
Br3131     Br  0.68268223  0.13872304  0.56108202    -0.00700
Br3132     Br  0.67940295  0.13108972  0.99783819    -0.00600
C3133       C  0.98443023  0.09996789  0.96679402    -0.01800
C3134       C  0.96999842  0.12300571  0.96919237     0.07900
C3135       C  0.98318893  0.14706395  0.96968196    -0.01900
C3136       C  0.01037434  0.14792816  0.96834179    -0.01900
C3137       C  0.02471438  0.12488470  0.96638500     0.08000
C3138       C  0.01156940  0.10102461  0.96479756    -0.02100
Br3139     Br  0.03063193  0.06980677  0.95809367    -0.00600
Br3140     Br  0.96755709  0.06657852  0.96813490    -0.00700
Br3141     Br  0.02786792  0.18089436  0.96989344    -0.00700
Br3142     Br  0.96439773  0.17929940  0.97164131    -0.00600
C3143       C  0.88399401  0.23720919  0.94921908    -0.01800
C3144       C  0.87636615  0.22421874  0.97178209     0.07900
C3145       C  0.86978725  0.23853353  0.99372435    -0.01900
C3146       C  0.87039064  0.26573251  0.99295701    -0.01900
C3147       C  0.87783838  0.27870149  0.97034533     0.08000
C3148       C  0.88479134  0.26438107  0.94852922    -0.02100
Br3149     Br  0.89634156  0.28199083  0.91791558    -0.00600
Br3150     Br  0.89438153  0.21782590  0.91945947    -0.00700
Br3151     Br  0.85931073  0.28518918  0.02237966    -0.00700
Br3152     Br  0.85849570  0.22094488  0.02442269    -0.00600
C3153       C  0.76046432  0.10216797  0.94892459    -0.01800
C3154       C  0.77255927  0.12602285  0.95433387     0.07900
C3155       C  0.75949369  0.14929171  0.94893376    -0.01900
C3156       C  0.73499048  0.14876378  0.93741851    -0.01900
C3157       C  0.72280208  0.12490632  0.93204527     0.08000
C3158       C  0.73543509  0.10164273  0.93845265    -0.02100
Br3159     Br  0.71790692  0.06897219  0.93472377    -0.00600
Br3160     Br  0.77860856  0.07006030  0.95439405    -0.00700
Br3161     Br  0.71859893  0.18101054  0.92831844    -0.00700
Br3162     Br  0.77475889  0.18208940  0.95818638    -0.00600
C3163       C  0.01266685  0.12523824  0.74262125    -0.01800
C3164       C  0.02601251  0.12315240  0.71907179     0.07900
C3165       C  0.01180615  0.12159006  0.69616131    -0.01900
C3166       C  0.98456419  0.12201476  0.69682277    -0.01900
C3167       C  0.97129651  0.12427285  0.72034627     0.08000
C3168       C  0.98550736  0.12631325  0.74318144    -0.02100
Br3169     Br  0.96791591  0.13216288  0.77532442    -0.00600
Br3170     Br  0.03128704  0.12516375  0.77456271    -0.00700
Br3171     Br  0.96554429  0.11866959  0.66539936    -0.00700
Br3172     Br  0.02947096  0.11985007  0.66360793    -0.00600
C3173       C  0.89406459  0.23147866  0.73415925    -0.01800
C3174       C  0.86964928  0.21942015  0.73238204     0.07900
C3175       C  0.84721894  0.23486509  0.73184108    -0.01900
C3176       C  0.84939858  0.26200240  0.73002786    -0.01900
C3177       C  0.87401464  0.27396662  0.72978534     0.08000
C3178       C  0.89622041  0.25856006  0.73282680    -0.02100
Br3179     Br  0.92997612  0.27404824  0.73355749    -0.00600
Br3180     Br  0.92471553  0.21089846  0.73959297    -0.00700
Br3181     Br  0.81841987  0.28271163  0.72828644    -0.00700
Br3182     Br  0.81340809  0.21923215  0.73337740    -0.00600
C3183       C  0.85522945  0.10097431  0.86256656    -0.01800
C3184       C  0.87263113  0.11739449  0.87536871     0.07900
C3185       C  0.88773089  0.13523800  0.86133227    -0.01900
C3186       C  0.88557605  0.13657485  0.83461264    -0.01900
C3187       C  0.86829296  0.12008756  0.82176240     0.08000
C3188       C  0.85318126  0.10221713  0.83575701    -0.02100
Br3189     Br  0.83019071  0.07904740  0.81812675    -0.00600
Br3190     Br  0.83330299  0.07775335  0.88188829    -0.00700
Br3191     Br  0.90576049  0.16159967  0.81558587    -0.00700
Br3192     Br  0.91162183  0.15773268  0.87878300    -0.00600
C3193       C  0.88865671  0.10639070  0.60947165    -0.01800
C3194       C  0.87255388  0.12165511  0.62498055     0.07900
C3195       C  0.85448107  0.13847226  0.61367497    -0.01900
C3196       C  0.85214981  0.13962130  0.58692459    -0.01900
C3197       C  0.86833265  0.12443743  0.57140065     0.08000
C3198       C  0.88674015  0.10795933  0.58271475    -0.02100
Br3199     Br  0.90910750  0.08714908  0.56154306    -0.00600
Br3200     Br  0.91392217  0.08403178  0.62491911    -0.00700
Br3201     Br  0.82743439  0.16261438  0.57149962    -0.00700
Br3202     Br  0.83269345  0.15976932  0.63491069    -0.00600
C3203       C  0.76395641  0.14321780  0.69256061    -0.01800
C3204       C  0.77397887  0.11977551  0.70208952     0.07900
C3205       C  0.75886737  0.09708529  0.70056352    -0.01900
C3206       C  0.73393109  0.09790483  0.68992366    -0.01900
C3207       C  0.72376376  0.12142347  0.68074833     0.08000
C3208       C  0.73885041  0.14412343  0.68227990    -0.02100
Br3209     Br  0.72557259  0.17635517  0.66923736    -0.00600
Br3210     Br  0.78532501  0.17373370  0.69154992    -0.00700
Br3211     Br  0.71322771  0.06690746  0.68928107    -0.00700
Br3212     Br  0.77198077  0.06486170  0.71376494    -0.00600
C3213       C  0.87584186  0.75931634  0.75623235    -0.01800
C3214       C  0.87406015  0.77315461  0.77945623     0.07900
C3215       C  0.87081979  0.75932092  0.80264712    -0.01900
C3216       C  0.86829062  0.73223483  0.80248773    -0.01900
C3217       C  0.87018531  0.71847829  0.77935642     0.08000
C3218       C  0.87419073  0.73208726  0.75627416    -0.02100
Br3219     Br  0.87848227  0.71341620  0.72469463    -0.00600
Br3220     Br  0.87955671  0.77729594  0.72399285    -0.00700
Br3221     Br  0.86087352  0.71409653  0.83406926    -0.00700
Br3222     Br  0.87134807  0.77698875  0.83516442    -0.00600
C3223       C  0.98360288  0.87198033  0.80430315    -0.01800
C3224       C  0.97000216  0.88080523  0.78272680     0.07900
C3225       C  0.98381348  0.89072073  0.76158300    -0.01900
C3226       C  0.01096662  0.89085346  0.76143721    -0.01900
C3227       C  0.02458258  0.88199241  0.78292717     0.08000
C3228       C  0.01086922  0.87268899  0.80445036    -0.02100
Br3229     Br  0.02950561  0.85944996  0.83344304    -0.00600
Br3230     Br  0.96490718  0.85801897  0.83319674    -0.00700
Br3231     Br  0.02953419  0.90355148  0.73180294    -0.00700
Br3232     Br  0.96560097  0.90556351  0.73331047    -0.00600
C3233       C  0.84677847  0.98769965  0.76228330    -0.01800
C3234       C  0.86801034  0.97106284  0.75885455     0.07900
C3235       C  0.88998899  0.97990101  0.74531510    -0.01900
C3236       C  0.89110480  0.00544768  0.73604015    -0.01900
C3237       C  0.87001433  0.02211964  0.73975598     0.08000
C3238       C  0.84782903  0.01320427  0.75284608    -0.02100
Br3239     Br  0.81943597  0.03641751  0.75908091    -0.00600
Br3240     Br  0.81658527  0.97589375  0.78063075    -0.00700
Br3241     Br  0.92133040  0.01759543  0.71781960    -0.00700
Br3242     Br  0.91797610  0.95656324  0.73810147    -0.00600
C3243       C  0.87124273  0.76385384  0.50312587    -0.01800
C3244       C  0.87669910  0.77741203  0.52578989     0.07900
C3245       C  0.88386329  0.76384504  0.54798629    -0.01900
C3246       C  0.88507937  0.73675795  0.54772078    -0.01900
C3247       C  0.87867857  0.72303013  0.52536548     0.08000
C3248       C  0.87217097  0.73664154  0.50290864    -0.02100
Br3249     Br  0.86308149  0.71815087  0.47225638    -0.00600
Br3250     Br  0.86097355  0.78248966  0.47284191    -0.00700
Br3251     Br  0.89674209  0.71859805  0.57782954    -0.00700
Br3252     Br  0.89285308  0.78243178  0.57867862    -0.00600
C3253       C  0.98452988  0.85633912  0.54192739    -0.01800
C3254       C  0.97144267  0.87920287  0.53517986     0.07900
C3255       C  0.98576952  0.90136563  0.52854769    -0.01900
C3256       C  0.01299568  0.90051290  0.52763706    -0.01900
C3257       C  0.02651220  0.87754483  0.53417244     0.08000
C3258       C  0.01184604  0.85545003  0.54156232    -0.02100
Br3259     Br  0.02848066  0.82307882  0.54965179    -0.00600
Br3260     Br  0.96479055  0.82626934  0.55231519    -0.00700
Br3261     Br  0.03097374  0.93146818  0.51724988    -0.00700
Br3262     Br  0.96783676  0.93285437  0.51960830    -0.00600
C3263       C  0.89036076  0.88884917  0.91860256    -0.01800
C3264       C  0.86919121  0.87742246  0.93161798     0.07900
C3265       C  0.84831050  0.86737196  0.91760620    -0.01900
C3266       C  0.84851972  0.86874455  0.89077772    -0.01900
C3267       C  0.87012017  0.87932485  0.87764434     0.08000
C3268       C  0.89088183  0.88971198  0.89172609    -0.02100
Br3269     Br  0.92077007  0.90415392  0.87450634    -0.00600
Br3270     Br  0.91868650  0.90385392  0.93746464    -0.00700
Br3271     Br  0.81837607  0.85707157  0.87233466    -0.00700
Br3272     Br  0.82011115  0.85000039  0.93500714    -0.00600
C3273       C  0.89250179  0.87759623  0.66820886    -0.01800
C3274       C  0.86897118  0.87169373  0.68103656     0.07900
C3275       C  0.84614913  0.86885368  0.66659122    -0.01900
C3276       C  0.84671586  0.87279378  0.63998215    -0.01900
C3277       C  0.87027872  0.87828151  0.62735559     0.08000
C3278       C  0.89314082  0.88060653  0.64150212    -0.02100
Br3279     Br  0.92567485  0.88679177  0.62410573    -0.00600
Br3280     Br  0.92422257  0.88237754  0.68663256    -0.00700
Br3281     Br  0.81485152  0.87174201  0.62090578    -0.00700
Br3282     Br  0.81430630  0.85760861  0.68265441    -0.00600
C3283       C  0.86916844  0.00676326  0.97745763    -0.01800
C3284       C  0.86809558  0.02683918  0.99556015     0.07900
C3285       C  0.85991804  0.02038271  0.52038949    -0.01900
C3286       C  0.86135314  0.99442452  0.52867306    -0.01900
C3287       C  0.86852578  0.97489563  0.51147284     0.08000
C3288       C  0.86995552  0.98076694  0.98553402    -0.02100
Br3289     Br  0.87260441  0.95390784  0.96012199    -0.00600
Br3290     Br  0.86768914  0.01465942  0.94140039    -0.00700
Br3291     Br  0.85208273  0.98523596  0.56332620    -0.00700
Br3292     Br  0.85105840  0.04644137  0.54529852    -0.00600
C3293       C  0.63381509  0.76225850  0.82238667    -0.01800
C3294       C  0.62957357  0.77532631  0.84561968     0.07900
C3295       C  0.62647862  0.76100633  0.86840888    -0.01900
C3296       C  0.62742433  0.73375935  0.86792898    -0.01900
C3297       C  0.63202770  0.72068505  0.84474795     0.08000
C3298       C  0.63523943  0.73509957  0.82199673    -0.02100
Br3299     Br  0.64239147  0.71777962  0.79018789    -0.00600
Br3300     Br  0.63848598  0.78156407  0.79101546    -0.00700
Br3301     Br  0.62024329  0.71438472  0.89866608    -0.00700
Br3302     Br  0.61929340  0.77865884  0.90005192    -0.00600
C3303       C  0.51153303  0.86886207  0.86693917    -0.01800
C3304       C  0.52622261  0.87475090  0.84492247     0.07900
C3305       C  0.51352358  0.88259458  0.82245460    -0.01900
C3306       C  0.48629323  0.88354442  0.82163981    -0.01900
C3307       C  0.47145165  0.87793029  0.84382367     0.08000
C3308       C  0.48442854  0.87117954  0.86667544    -0.02100
Br3309     Br  0.46570813  0.86667641  0.89849653    -0.00600
Br3310     Br  0.52846703  0.85651789  0.89741944    -0.00700
Br3311     Br  0.46983703  0.89154256  0.78953018    -0.00700
Br3312     Br  0.53349109  0.89368911  0.79314317    -0.00600
C3313       C  0.60256763  0.98779948  0.86938460    -0.01800
C3314       C  0.62541318  0.97312037  0.86743617     0.07900
C3315       C  0.64895753  0.98383736  0.87572680    -0.01900
C3316       C  0.64983663  0.00917490  0.88543495    -0.01900
C3317       C  0.62706220  0.02407102  0.88725284     0.08000
C3318       C  0.60337976  0.01323764  0.87903021    -0.02100
Br3319     Br  0.57212365  0.03356387  0.87934482    -0.00600
Br3320     Br  0.57014510  0.97321949  0.85821014    -0.00700
Br3321     Br  0.68233036  0.02274614  0.89734402    -0.00700
Br3322     Br  0.67981490  0.96305681  0.87572237    -0.00600
C3323       C  0.73089628  0.85265676  0.80907626    -0.01800
C3324       C  0.72284844  0.87506276  0.82224529     0.07900
C3325       C  0.73992391  0.89620564  0.82441126    -0.01900
C3326       C  0.76486731  0.89495358  0.81368520    -0.01900
C3327       C  0.77271907  0.87284264  0.80011875     0.08000
C3328       C  0.75581537  0.85155641  0.79809569    -0.02100
Br3329     Br  0.76688042  0.82099328  0.78014537    -0.00600
Br3330     Br  0.70747613  0.82381354  0.80514921    -0.00700
Br3331     Br  0.78907795  0.92277164  0.81926827    -0.00700
Br3332     Br  0.72967012  0.92646354  0.84316486    -0.00600
C3333       C  0.63966230  0.76256992  0.57631134    -0.01800
C3334       C  0.63308278  0.77560509  0.59898221     0.07900
C3335       C  0.62613397  0.76121554  0.62090549    -0.01900
C3336       C  0.62496238  0.73390187  0.61984222    -0.01900
C3337       C  0.63110215  0.72084555  0.59692710     0.08000
C3338       C  0.63898713  0.73540315  0.57541224    -0.02100
Br3339     Br  0.65055904  0.71825832  0.54499567    -0.00600
Br3340     Br  0.65041434  0.78204979  0.54648883    -0.00700
Br3341     Br  0.61369489  0.71452474  0.64939721    -0.00700
Br3342     Br  0.61713799  0.77903088  0.65198170    -0.00600
C3343       C  0.51514370  0.85086028  0.59376889    -0.01800
C3344       C  0.52974219  0.87352154  0.58945081     0.07900
C3345       C  0.51714172  0.89691903  0.58371426    -0.01900
C3346       C  0.49002675  0.89785833  0.58301843    -0.01900
C3347       C  0.47539392  0.87545316  0.58820301     0.08000
C3348       C  0.48796829  0.85186369  0.59335420    -0.02100
Br3349     Br  0.46800658  0.82130764  0.60151634    -0.00600
Br3350     Br  0.53236365  0.81875609  0.60156666    -0.00700
Br3351     Br  0.47285417  0.92966707  0.57420165    -0.00700
Br3352     Br  0.53703712  0.92752274  0.57588846    -0.00600
C3353       C  0.61347676  0.85729569  0.95789167    -0.01800
C3354       C  0.63376926  0.86931614  0.94431635     0.07900
C3355       C  0.65324723  0.88261723  0.95767019    -0.01900
C3356       C  0.65200964  0.88451639  0.98453302    -0.01900
C3357       C  0.63068913  0.87389238  0.99813616     0.08000
C3358       C  0.61160292  0.85987793  0.98454699    -0.02100
Br3359     Br  0.58181432  0.84495695  0.00165958    -0.00600
Br3360     Br  0.58838635  0.83661910  0.93977241    -0.00700
Br3361     Br  0.67551207  0.90779007  0.50171960    -0.00700
Br3362     Br  0.68099262  0.89932903  0.93904152    -0.00600
C3363       C  0.65085171  0.88538238  0.70834681    -0.01800
C3364       C  0.63129003  0.87284702  0.69435886     0.07900
C3365       C  0.60950296  0.86272014  0.70727833    -0.01900
C3366       C  0.60664811  0.86607249  0.73376420    -0.01900
C3367       C  0.62624514  0.87847992  0.74798611     0.08000
C3368       C  0.64854511  0.88792166  0.73508887    -0.02100
Br3369     Br  0.67671267  0.90351469  0.75372323    -0.00600
Br3370     Br  0.68040620  0.90008641  0.69084021    -0.00700
Br3371     Br  0.57484949  0.85481100  0.74990395    -0.00700
Br3372     Br  0.58379376  0.84316569  0.68876842    -0.00600
C3373       C  0.64763312  0.98035303  0.63407508    -0.01800
C3374       C  0.62816350  0.97331493  0.61669262     0.07900
C3375       C  0.60826458  0.99086187  0.61109057    -0.01900
C3376       C  0.60777576  0.01532313  0.62282326    -0.01900
C3377       C  0.62731930  0.02245376  0.64011274     0.08000
C3378       C  0.64712247  0.00480242  0.64584758    -0.02100
Br3379     Br  0.67269291  0.01362097  0.67089690    -0.00600
Br3380     Br  0.67483761  0.95627683  0.64196928    -0.00700
Br3381     Br  0.58049335  0.03924725  0.61491143    -0.00700
Br3382     Br  0.58211082  0.98154046  0.58676872    -0.00600
C3383       C  0.76368569  0.89980195  0.55769132    -0.01800
C3384       C  0.77319255  0.87634482  0.54771863     0.07900
C3385       C  0.75782654  0.85381776  0.54922609    -0.01900
C3386       C  0.73328745  0.85461379  0.56094796    -0.01900
C3387       C  0.72414637  0.87784508  0.57172498     0.08000
C3388       C  0.73928758  0.90051712  0.56973956    -0.02100
Br3389     Br  0.72706530  0.93241258  0.58449816    -0.00600
Br3390     Br  0.78461699  0.93077265  0.55613962    -0.00700
Br3391     Br  0.71154640  0.82419821  0.56070291    -0.00700
Br3392     Br  0.77022239  0.82257946  0.03306006    -0.00600
loop_ 
_geom_bond_atom_site_label_1 
_geom_bond_atom_site_label_2 
_geom_bond_distance 
_geom_bond_site_symmetry_2 
_ccdc_geom_bond_type 
Zn1           O5   1.923       .  S
Zn1           O6   1.979       .  S
Zn1          O10   1.979       .  S
Zn1          O17   1.988       .  S
Zn2           O5   1.959       .  S
Zn2           O7   2.003       .  S
Zn2           O9   2.063       .  S
Zn2          O13   2.049       .  S
Zn3           O5   1.958       .  S
Zn3           O8   2.051       .  S
Zn3          O11   2.048       .  S
Zn3          O14   2.046       .  S
Zn4           O5   1.935       .  S
Zn4          O12   2.015       .  S
Zn4          O15   1.994       .  S
Zn4          O16   2.034       .  S
O6           C18   1.267       .  A
O7           C19   1.273       .  A
O8           C20   1.279       .  A
O9           C18   1.278       .  A
O10          C20   1.271       .  A
O11          C19   1.279       .  A
O12          C21   1.273       .  A
O13          C22   1.279       .  A
O14          C21   1.276       .  A
O15          C22   1.271       .  A
O16          C23   1.275       .  A
O17          C23   1.270       .  A
C18        C1678   1.476       .  S
C19        C1691   1.480       .  S
C20        C1668   1.477       .  S
C21        C1638   1.480       .  S
C22        C3357   1.490   1_554  S
C23        C1648   1.474       .  S
Zn24         O28   1.961       .  S
Zn24         O29   2.036       .  S
Zn24         O33   2.019       .  S
Zn24         O40   2.055       .  S
Zn25         O28   1.939       .  S
Zn25         O30   2.016       .  S
Zn25         O32   1.996       .  S
Zn25         O36   2.030       .  S
Zn26         O28   1.958       .  S
Zn26         O31   2.044       .  S
Zn26         O34   2.040       .  S
Zn26         O37   2.048       .  S
Zn27         O28   1.932       .  S
Zn27         O35   1.985       .  S
Zn27         O38   2.001       .  S
Zn27         O39   1.996       .  S
O29          C41   1.277       .  A
O30          C42   1.273       .  A
O31          C43   1.278       .  A
O32          C41   1.272       .  A
O33          C43   1.274       .  A
O34          C42   1.275       .  A
O35          C44   1.272       .  A
O36          C45   1.275       .  A
O37          C44   1.279       .  A
O38          C45   1.272       .  A
O39          C46   1.270       .  A
O40          C46   1.278       .  A
C41        C1671   1.486       .  S
C42        C1598   1.484       .  S
C43        C1628   1.480       .  S
C44        C1658   1.474       .  S
C45        C1608   1.479       .  S
C46        C1618   1.484       .  S
Zn47         O51   1.947       .  S
Zn47         O52   2.043       .  S
Zn47         O63   1.996       .  S
Zn47       O1752   2.025   1_554  S
Zn48         O51   1.930       .  S
Zn48         O53   1.991       .  S
Zn48         O55   1.989       .  S
Zn48         O59   1.980       .  S
Zn49         O51   1.944       .  S
Zn49         O57   2.018       .  S
Zn49         O60   2.017       .  S
Zn49       O1750   2.004   1_554  S
Zn50         O51   1.955       .  S
Zn50         O58   2.041       .  S
Zn50         O61   2.049       .  S
Zn50         O62   2.055       .  S
O52          C64   1.276       .  A
O53          C65   1.270       .  A
O54       Zn1745   2.003       .  S
O54          C66   1.273       .  A
O55          C64   1.269       .  A
O56       Zn1743   2.013       .  S
O56          C66   1.276       .  A
O57          C65   1.272       .  A
O58          C67   1.277       .  A
O59          C68   1.270       .  A
O60          C67   1.274       .  A
O61          C68   1.279       .  A
O62          C69   1.278       .  A
O63          C69   1.271       .  A
C64        C1688   1.476       .  S
C65        C1548   1.470       .  S
C66        C1568   1.477       .  S
C67        C1558   1.480       .  S
C68        C1581   1.481       .  S
C69        C1591   1.487       .  S
Zn70         O74   1.932       .  S
Zn70         O75   2.007       .  S
Zn70         O79   1.988       .  S
Zn70         O86   2.000       .  S
Zn71         O74   1.955       .  S
Zn71         O76   2.000       .  S
Zn71         O78   2.046       .  S
Zn71         O82   2.019       .  S
Zn72         O74   1.956       .  S
Zn72         O77   2.031       .  S
Zn72         O80   2.034       .  S
Zn72         O83   2.038       .  S
Zn73         O74   1.946       .  S
Zn73         O81   2.027       .  S
Zn73         O84   2.021       .  S
Zn73         O85   2.033       .  S
O75          C87   1.270       .  A
O76          C88   1.271       .  A
O77          C89   1.276       .  A
O78          C87   1.276       .  A
O79          C89   1.272       .  A
O80          C88   1.276       .  A
O81          C90   1.274       .  A
O82          C91   1.276       .  A
O83          C90   1.275       .  A
O84          C91   1.276       .  A
O85          C92   1.275       .  A
O86          C92   1.271       .  A
C87        C1631   1.478       .  S
C88        C1538   1.476       .  S
C89        C1571   1.478       .  S
C90        C1528   1.482       .  S
C91        C1578   1.480       .  S
C92        C1518   1.488       .  S
Zn93         O97   1.951       .  S
Zn93         O98   2.003       .  S
Zn93        O102   2.036       .  S
Zn93        O109   2.016       .  S
Zn94         O97   1.964       .  S
Zn94         O99   2.051       .  S
Zn94        O101   2.066       .  S
Zn94        O105   2.042       .  S
Zn95         O97   1.936       .  S
Zn95        O100   1.996       .  S
Zn95        O103   1.997       .  S
Zn95        O106   2.015       .  S
Zn96         O97   1.944       .  S
Zn96        O104   2.031       .  S
Zn96        O107   2.009       .  S
Zn96        O108   2.012       .  S
O98         C110   1.271       .  A
O99         C111   1.279       .  A
O100        C112   1.270       .  A
O101        C110   1.280       .  A
O102        C112   1.275       .  A
O103        C111   1.273       .  A
O104        C113   1.274       .  A
O105        C114   1.276       .  A
O106        C113   1.273       .  A
O107        C114   1.273       .  A
O108        C115   1.274       .  A
O109        C115   1.274       .  A
C110       C1508   1.490       .  S
C111       C1491   1.475       .  S
C112       C1541   1.473       .  S
C113       C1471   1.491       .  S
C114       C1478   1.488       .  S
C115       C1498   1.469       .  S
Zn116       O120   1.959       .  S
Zn116       O121   2.016       .  S
Zn116       O125   2.047       .  S
Zn116      O1828   2.038       .  S
Zn117       O120   1.951       .  S
Zn117       O122   2.056       .  S
Zn117       O124   2.042       .  S
Zn117       O128   2.034       .  S
Zn118       O120   1.928       .  S
Zn118       O123   1.989       .  S
Zn118       O126   1.984       .  S
Zn118       O129   2.004       .  S
Zn119       O120   1.942       .  S
Zn119       O127   2.024       .  S
Zn119       O130   2.007       .  S
Zn119      O1827   2.001       .  S
O121        C133   1.273       .  A
O122        C134   1.279       .  A
O123        C135   1.270       .  A
O124        C133   1.278       .  A
O125        C135   1.277       .  A
O126        C134   1.270       .  A
O127        C136   1.274       .  A
O128        C137   1.275       .  A
O129        C136   1.272       .  A
O130        C137   1.273       .  A
O131      Zn1815   1.990   1_554  S
O131        C138   1.271       .  A
O132      Zn1812   2.031   1_554  S
O132        C138   1.276       .  A
C133       C1588   1.495       .  S
C134       C1488   1.477       .  S
C135       C1458   1.490       .  S
C136       C1448   1.473       .  S
C137       C1438   1.488       .  S
C138       C1501   1.473       .  S
Zn139       O143   1.953       .  S
Zn139       O144   2.002       .  S
Zn139       O148   2.046       .  S
Zn139       O155   2.022       .  S
Zn140       O143   1.959       .  S
Zn140       O145   2.053       .  S
Zn140       O147   2.053       .  S
Zn140       O151   2.046       .  S
Zn141       O143   1.934       .  S
Zn141       O146   2.017       .  S
Zn141       O149   1.995       .  S
Zn141       O152   2.016       .  S
Zn142       O143   1.941       .  S
Zn142       O150   2.025       .  S
Zn142       O153   2.012       .  S
Zn142       O154   2.005       .  S
O144        C156   1.271       .  A
O145        C157   1.279       .  A
O146        C158   1.273       .  A
O147        C156   1.277       .  A
O148        C158   1.277       .  A
O149        C157   1.272       .  A
O150        C159   1.273       .  A
O151        C160   1.277       .  A
O152        C159   1.273       .  A
O153        C160   1.273       .  A
O154        C161   1.274       .  A
O155        C161   1.276       .  A
C156       C1681   1.481       .  S
C157       C1418   1.493       .  S
C158       C1511   1.489       .  S
C159       C1408   1.476       .  S
C160       C1398   1.487       .  S
C161       C1431   1.477       .  S
Zn162       O166   1.931       .  S
Zn162       O167   1.980       .  S
Zn162       O171   1.991       .  S
Zn162       O178   1.979       .  S
Zn163       O166   1.957       .  S
Zn163       O168   2.041       .  S
Zn163       O170   2.050       .  S
Zn163       O174   2.046       .  S
Zn164       O166   1.940       .  S
Zn164       O169   2.033       .  S
Zn164       O172   2.010       .  S
Zn164       O175   2.012       .  S
Zn165       O166   1.952       .  S
Zn165       O173   2.025       .  S
Zn165       O176   2.004       .  S
Zn165       O177   2.048       .  S
O167        C179   1.269       .  A
O168        C180   1.277       .  A
O169        C181   1.274       .  A
O170        C179   1.279       .  A
O171        C181   1.270       .  A
O172        C180   1.274       .  A
O173        C182   1.276       .  A
O174        C183   1.277       .  A
O175        C182   1.274       .  A
O176        C183   1.272       .  A
O177        C184   1.277       .  A
O178        C184   1.268       .  A
C179       C3124   1.481       .  S
C180       C1378   1.482       .  S
C181       C1391   1.473       .  S
C182       C1421   1.476       .  S
C183       C1621   1.489       .  S
C184       C1461   1.477       .  S
Zn185       O189   1.950       .  S
Zn185       O190   2.029       .  S
Zn185       O194   2.040       .  S
Zn185       O201   2.006       .  S
Zn186       O189   1.970       .  S
Zn186       O193   2.038       .  S
Zn186       O197   2.069       .  S
Zn186      O1887   2.074   1_554  S
Zn187       O189   1.938       .  S
Zn187       O192   2.021       .  S
Zn187       O198   1.998       .  S
Zn187      O1891   1.981   1_554  S
Zn188       O189   1.963       .  S
Zn188       O196   2.037       .  S
Zn188       O199   1.997       .  S
Zn188       O200   2.024       .  S
O190        C202   1.275       .  A
O191      Zn1882   2.062       .  S
O191        C203   1.280       .  A
O192        C204   1.272       .  A
O193        C202   1.276       .  A
O194        C204   1.274       .  A
O195      Zn1883   1.987       .  S
O195        C203   1.270       .  A
O196        C205   1.275       .  A
O197        C206   1.280       .  A
O198        C205   1.272       .  A
O199        C206   1.270       .  A
O200        C207   1.275       .  A
O201        C207   1.273       .  A
C202       C1331   1.478       .  S
C203       C1338   1.474       .  S
C204       C1561   1.505       .  S
C205       C1358   1.477       .  S
C206       C1371   1.490       .  S
C207       C1351   1.479       .  S
Zn208       O212   1.936       .  S
Zn208       O213   2.011       .  S
Zn208       O217   1.999       .  S
Zn208       O224   1.997       .  S
Zn209       O212   1.952       .  S
Zn209       O214   2.014       .  S
Zn209       O216   2.044       .  S
Zn209       O220   2.016       .  S
Zn210       O212   1.970       .  S
Zn210       O215   2.050       .  S
Zn210       O218   2.033       .  S
Zn210       O221   2.067       .  S
Zn211       O212   1.953       .  S
Zn211       O219   1.995       .  S
Zn211       O222   2.011       .  S
Zn211       O223   2.043       .  S
O213        C225   1.273       .  A
O214        C226   1.274       .  A
O215        C227   1.279       .  A
O216        C225   1.275       .  A
O217        C227   1.273       .  A
O218        C226   1.275       .  A
O219        C228   1.271       .  A
O220        C229   1.275       .  A
O221        C228   1.279       .  A
O222        C229   1.274       .  A
O223        C230   1.276       .  A
O224        C230   1.270       .  A
C225       C1298   1.492       .  S
C226       C1531   1.477       .  S
C227       C1341   1.481       .  S
C228       C1308   1.492       .  S
C229       C1348   1.468       .  S
C230       C1318   1.485       .  S
Zn231       O235   1.934       .  S
Zn231       O236   1.989       .  S
Zn231       O240   1.997       .  S
Zn231       O247   1.978       .  S
Zn232       O235   1.957       .  S
Zn232       O237   2.041       .  S
Zn232       O239   2.053       .  S
Zn232       O243   2.007       .  S
Zn233       O235   1.944       .  S
Zn233       O238   2.024       .  S
Zn233       O241   2.012       .  S
Zn233       O244   2.005       .  S
Zn234       O235   1.966       .  S
Zn234       O242   2.042       .  S
Zn234       O245   2.063       .  S
Zn234       O246   2.068       .  S
O236        C248   1.269       .  A
O237        C249   1.278       .  A
O238        C250   1.273       .  A
O239        C248   1.278       .  A
O240        C250   1.271       .  A
O241        C249   1.274       .  A
O242        C251   1.276       .  A
O243        C252   1.272       .  A
O244        C251   1.272       .  A
O245        C252   1.280       .  A
O246        C253   1.281       .  A
O247        C253   1.269       .  A
C248       C1288   1.483       .  S
C249       C2964   1.481   1_554  S
C250       C1651   1.474       .  S
C251       C1258   1.487       .  S
C252       C1368   1.494       .  S
C253       C1278   1.475       .  S
Zn254       O258   1.940       .  S
Zn254       O259   2.004       .  S
Zn254       O263   2.036       .  S
Zn254       O270   2.017       .  S
Zn255       O258   1.971       .  S
Zn255       O260   2.058       .  S
Zn255       O262   2.031       .  S
Zn255       O266   2.052       .  S
Zn256       O258   1.936       .  S
Zn256       O261   2.006       .  S
Zn256       O264   1.985       .  S
Zn256       O267   1.996       .  S
Zn257       O258   1.948       .  S
Zn257       O265   2.047       .  S
Zn257       O268   1.999       .  S
Zn257       O269   2.030       .  S
O259        C271   1.273       .  A
O260        C272   1.280       .  A
O261        C273   1.272       .  A
O262        C271   1.275       .  A
O263        C273   1.275       .  A
O264        C272   1.271       .  A
O265        C274   1.278       .  A
O266        C275   1.277       .  A
O267        C274   1.270       .  A
O268        C275   1.271       .  A
O269        C276   1.276       .  A
O270        C276   1.274       .  A
C271       C1611   1.488       .  S
C272       C1281   1.477       .  S
C273       C1238   1.484       .  S
C274       C1321   1.488       .  S
C275       C1248   1.491       .  S
C276       C1271   1.474       .  S
Zn277       O281   1.947       .  S
Zn277       O282   1.996       .  S
Zn277       O286   2.016       .  S
Zn277       O293   2.025       .  S
Zn278       O281   1.953       .  S
Zn278       O283   2.032       .  S
Zn278       O285   2.045       .  S
Zn278       O289   2.040       .  S
Zn279       O281   1.934       .  S
Zn279       O284   2.009       .  S
Zn279       O287   2.014       .  S
Zn279       O290   2.042       .  S
Zn280       O281   1.932       .  S
Zn280       O288   2.027       .  S
Zn280       O291   1.997       .  S
Zn280       O292   2.014       .  S
O282        C294   1.270       .  A
O283        C295   1.276       .  A
O284        C296   1.274       .  A
O285        C294   1.276       .  A
O286        C296   1.275       .  A
O287        C295   1.275       .  A
O288        C297   1.275       .  A
O289        C298   1.278       .  A
O290        C297   1.276       .  A
O291        C298   1.271       .  A
O292        C299   1.274       .  A
O293        C299   1.275       .  A
C294       C1291   1.484       .  S
C295       C1401   1.480       .  S
C296       C1221   1.477       .  S
C297       C1198   1.496       .  S
C298       C1211   1.489       .  S
C299       C1228   1.477       .  S
Zn300       O304   1.944       .  S
Zn300       O305   2.025       .  S
Zn300       O309   2.049       .  S
Zn300       O316   1.996       .  S
Zn301       O304   1.941       .  S
Zn301       O306   2.019       .  S
Zn301       O308   2.002       .  S
Zn301       O312   2.012       .  S
Zn302       O304   1.936       .  S
Zn302       O307   2.001       .  S
Zn302       O310   2.007       .  S
Zn302       O313   1.975       .  S
Zn303       O304   1.967       .  S
Zn303       O311   2.041       .  S
Zn303       O314   2.026       .  S
Zn303       O315   2.060       .  S
O305        C317   1.276       .  A
O306        C318   1.273       .  A
O307        C319   1.271       .  A
O308        C317   1.273       .  A
O309        C319   1.278       .  A
O310        C318   1.272       .  A
O311        C320   1.278       .  A
O312        C321   1.273       .  A
O313        C320   1.270       .  A
O314        C321   1.274       .  A
O315        C322   1.279       .  A
O316        C322   1.271       .  A
C317       C1208   1.475       .  S
C318       C1181   1.480       .  S
C319       C1188   1.486       .  S
C320       C2914   1.478       .  S
C321       C1381   1.479       .  S
C322       C1251   1.493       .  S
Zn323       O327   1.947       .  S
Zn323       O328   1.990       .  S
Zn323       O332   2.033       .  S
Zn323       O339   2.053       .  S
Zn324       O327   1.973       .  S
Zn324       O329   2.042       .  S
Zn324       O331   2.077       .  S
Zn324       O335   2.072       .  S
Zn325       O327   1.940       .  S
Zn325       O330   1.997       .  S
Zn325       O333   2.001       .  S
Zn325       O336   2.034       .  S
Zn326       O327   1.933       .  S
Zn326       O334   2.003       .  S
Zn326       O337   1.987       .  S
Zn326       O338   1.980       .  S
O328        C340   1.270       .  A
O329        C341   1.277       .  A
O330        C342   1.272       .  A
O331        C340   1.281       .  A
O332        C342   1.277       .  A
O333        C341   1.273       .  A
O334        C343   1.270       .  A
O335        C344   1.282       .  A
O336        C343   1.274       .  A
O337        C344   1.271       .  A
O338        C345   1.268       .  A
O339        C345   1.277       .  A
C340       C1311   1.498       .  S
C341       C1468   1.482       .  S
C342       C1158   1.470       .  S
C343       C1148   1.473       .  S
C344       C1171   1.488       .  S
C345       C1231   1.494       .  S
Zn346       O350   1.930       .  S
Zn346       O355   1.986       .  S
Zn346       O362   2.025       .  S
Zn346      O2047   1.991       .  S
Zn347       O350   1.960       .  S
Zn347       O352   2.060       .  S
Zn347       O358   2.038       .  S
Zn347      O2050   2.060       .  S
Zn348       O350   1.960       .  S
Zn348       O353   2.047       .  S
Zn348       O356   2.008       .  S
Zn348       O359   2.028       .  S
Zn349       O350   1.945       .  S
Zn349       O357   2.011       .  S
Zn349       O360   2.027       .  S
Zn349       O361   2.032       .  S
O351      Zn2042   1.986   1_554  S
O351        C363   1.270       .  A
O352        C364   1.279       .  A
O353        C365   1.277       .  A
O354      Zn2043   2.062   1_554  S
O354        C363   1.280       .  A
O355        C365   1.270       .  A
O356        C364   1.272       .  A
O357        C366   1.275       .  A
O358        C367   1.277       .  A
O359        C366   1.277       .  A
O360        C367   1.276       .  A
O361        C368   1.274       .  A
O362        C368   1.274       .  A
C363       C1168   1.475       .  S
C364       C1191   1.489       .  S
C365       C1361   1.486       .  S
C366       C1161   1.479       .  S
C367       C1138   1.484       .  S
C368       C1441   1.487       .  S
Zn369       O373   1.952       .  S
Zn369       O374   2.025       .  S
Zn369       O378   1.989       .  S
Zn369       O385   2.021       .  S
Zn370       O373   1.936       .  S
Zn370       O375   1.992       .  S
Zn370       O377   1.991       .  S
Zn370       O381   2.015       .  S
Zn371       O373   1.959       .  S
Zn371       O376   2.051       .  S
Zn371       O379   2.047       .  S
Zn371       O382   2.028       .  S
Zn372       O373   1.943       .  S
Zn372       O380   2.029       .  S
Zn372       O383   2.029       .  S
Zn372       O384   2.007       .  S
O374        C386   1.275       .  A
O375        C387   1.273       .  A
O376        C388   1.278       .  A
O377        C386   1.269       .  A
O378        C388   1.268       .  A
O379        C387   1.279       .  A
O380        C389   1.276       .  A
O381        C390   1.273       .  A
O382        C389   1.275       .  A
O383        C390   1.274       .  A
O384        C391   1.274       .  A
O385        C391   1.276       .  A
C386       C1121   1.480       .  S
C387       C1108   1.482       .  S
C388       C1128   1.476       .  S
C389       C1088   1.483       .  S
C390       C1481   1.485       .  S
C391       C1098   1.482       .  S
Zn392       O396   1.949       .  S
Zn392       O397   2.004       .  S
Zn392       O408   2.058       .  S
Zn392      O2097   2.030       .  S
Zn393       O396   1.965       .  S
Zn393       O398   2.060       .  S
Zn393       O400   2.049       .  S
Zn393       O404   2.051       .  S
Zn394       O396   1.935       .  S
Zn394       O402   1.997       .  S
Zn394       O405   2.018       .  S
Zn394      O2095   1.999       .  S
Zn395       O396   1.935       .  S
Zn395       O403   2.013       .  S
Zn395       O406   1.987       .  S
Zn395       O407   2.002       .  S
O397        C409   1.271       .  A
O398        C410   1.279       .  A
O399      Zn2090   2.006   1_554  S
O399        C411   1.272       .  A
O400        C409   1.278       .  A
O401      Zn2088   2.033   1_554  S
O401        C411   1.277       .  A
O402        C410   1.272       .  A
O403        C412   1.273       .  A
O404        C413   1.279       .  A
O405        C412   1.273       .  A
O406        C413   1.272       .  A
O407        C414   1.271       .  A
O408        C414   1.279       .  A
C409       C1078   1.499       .  S
C410       C1058   1.485       .  S
C411       C1111   1.486       .  S
C412       C1451   1.472       .  S
C413       C1101   1.484       .  S
C414       C1068   1.489       .  S
Zn415       O419   1.926       .  S
Zn415       O420   2.001       .  S
Zn415       O424   1.995       .  S
Zn415       O431   1.989       .  S
Zn416       O419   1.947       .  S
Zn416       O421   2.042       .  S
Zn416       O423   2.030       .  S
Zn416       O427   2.018       .  S
Zn417       O419   1.939       .  S
Zn417       O422   2.044       .  S
Zn417       O425   1.995       .  S
Zn417      O2124   2.032   1_554  S
Zn418       O419   1.943       .  S
Zn418       O429   2.028       .  S
Zn418       O430   2.025       .  S
Zn418      O2122   2.019   1_554  S
O420        C432   1.272       .  A
O421        C433   1.277       .  A
O422        C434   1.278       .  A
O423        C432   1.275       .  A
O424        C434   1.270       .  A
O425        C433   1.271       .  A
O426      Zn2114   2.013       .  S
O426        C435   1.276       .  A
O427        C436   1.273       .  A
O428      Zn2113   2.030       .  S
O428        C435   1.278       .  A
O429        C436   1.275       .  A
O430        C437   1.274       .  A
O431        C437   1.271       .  A
C432       C1041   1.473       .  S
C433       C1081   1.481       .  S
C434       C1048   1.489       .  S
C435       C1031   1.483       .  S
C436       C1018   1.492       .  S
C437       C1551   1.473       .  S
Zn438       O442   1.940       .  S
Zn438       O443   2.006       .  S
Zn438       O447   1.991       .  S
Zn438       O454   1.992       .  S
Zn439       O442   1.947       .  S
Zn439       O444   2.013       .  S
Zn439       O446   2.023       .  S
Zn439       O450   2.015       .  S
Zn440       O442   1.968       .  S
Zn440       O445   2.045       .  S
Zn440       O448   2.023       .  S
Zn440       O451   2.041       .  S
Zn441       O442   1.952       .  S
Zn441       O449   1.982       .  S
Zn441       O452   2.022       .  S
Zn441       O453   2.040       .  S
O443        C455   1.271       .  A
O444        C456   1.274       .  A
O445        C457   1.277       .  A
O446        C455   1.273       .  A
O447        C457   1.270       .  A
O448        C456   1.274       .  A
O449        C458   1.270       .  A
O450        C459   1.273       .  A
O451        C458   1.276       .  A
O452        C459   1.274       .  A
O453        C460   1.275       .  A
O454        C460   1.270       .  A
C455        C998   1.470       .  S
C456       C1521   1.480       .  S
C457       C1038   1.472       .  S
C458       C1008   1.480       .  S
C459       C1028   1.472       .  S
C460       C1131   1.472       .  S
Zn461       O465   1.932       .  S
Zn461       O466   1.990       .  S
Zn461       O470   2.018       .  S
Zn461       O477   2.021       .  S
Zn462       O465   1.950       .  S
Zn462       O467   2.042       .  S
Zn462       O469   2.036       .  S
Zn462       O473   2.037       .  S
Zn463       O465   1.954       .  S
Zn463       O468   2.054       .  S
Zn463       O471   1.999       .  S
Zn463       O474   2.028       .  S
Zn464       O465   1.942       .  S
Zn464       O472   2.014       .  S
Zn464       O475   2.039       .  S
Zn464       O476   2.028       .  S
O466        C478   1.272       .  A
O467        C479   1.277       .  A
O468        C480   1.278       .  A
O469        C478   1.278       .  A
O470        C480   1.273       .  A
O471        C479   1.271       .  A
O472        C481   1.276       .  A
O473        C482   1.275       .  A
O474        C481   1.278       .  A
O475        C482   1.276       .  A
O476        C483   1.275       .  A
O477        C483   1.275       .  A
C478        C978   1.480       .  S
C479       C1051   1.486       .  S
C480        C991   1.495       .  S
C481       C2664   1.484   1_554  S
C482       C1641   1.484       .  S
C483        C958   1.484       .  S
Zn484       O488   1.933       .  S
Zn484       O489   2.007       .  S
Zn484       O493   2.014       .  S
Zn484       O500   2.012       .  S
Zn485       O488   1.942       .  S
Zn485       O490   1.982       .  S
Zn485       O492   2.010       .  S
Zn485       O496   2.035       .  S
Zn486       O488   1.956       .  S
Zn486       O491   2.053       .  S
Zn486       O494   2.048       .  S
Zn486       O497   2.048       .  S
Zn487       O488   1.927       .  S
Zn487       O495   1.981       .  S
Zn487       O498   1.983       .  S
Zn487       O499   1.997       .  S
O489        C501   1.274       .  A
O490        C502   1.269       .  A
O491        C503   1.279       .  A
O492        C501   1.274       .  A
O493        C503   1.274       .  A
O494        C502   1.277       .  A
O495        C504   1.270       .  A
O496        C505   1.275       .  A
O497        C504   1.278       .  A
O498        C505   1.269       .  A
O499        C506   1.271       .  A
O500        C506   1.272       .  A
C501        C981   1.476       .  S
C502       C1011   1.489       .  S
C503       C1601   1.487       .  S
C504        C971   1.481       .  S
C505        C948   1.476       .  S
C506        C938   1.468       .  S
Zn507       O511   1.937       .  S
Zn507       O512   2.007       .  S
Zn507       O516   1.997       .  S
Zn507       O523   1.978       .  S
Zn508       O511   1.942       .  S
Zn508       O513   1.998       .  S
Zn508       O515   2.033       .  S
Zn508       O519   2.008       .  S
Zn509       O511   1.964       .  S
Zn509       O514   2.054       .  S
Zn509       O517   2.030       .  S
Zn509       O520   2.055       .  S
Zn510       O511   1.953       .  S
Zn510       O518   2.011       .  S
Zn510       O521   2.031       .  S
Zn510       O522   2.041       .  S
O512        C524   1.271       .  A
O513        C525   1.272       .  A
O514        C526   1.280       .  A
O515        C524   1.274       .  A
O516        C526   1.272       .  A
O517        C525   1.275       .  A
O518        C527   1.272       .  A
O519        C528   1.273       .  A
O520        C527   1.278       .  A
O521        C528   1.276       .  A
O522        C529   1.277       .  A
O523        C529   1.269       .  A
C524       C1411   1.476       .  S
C525        C908   1.477       .  S
C526        C918   1.486       .  S
C527        C988   1.493       .  S
C528        C928   1.472       .  S
C529       C1118   1.480       .  S
Zn530       O534   1.959       .  S
Zn530       O535   2.063       .  S
Zn530       O539   2.035       .  S
Zn530       O546   2.045       .  S
Zn531       O534   1.927       .  S
Zn531       O536   1.999       .  S
Zn531       O538   1.984       .  S
Zn531       O542   1.971       .  S
Zn532       O534   1.936       .  S
Zn532       O537   1.997       .  S
Zn532       O540   2.013       .  S
Zn532       O543   2.008       .  S
Zn533       O534   1.959       .  S
Zn533       O541   2.028       .  S
Zn533       O544   2.054       .  S
Zn533       O545   2.018       .  S
O535        C547   1.279       .  A
O536        C548   1.270       .  A
O537        C549   1.271       .  A
O538        C547   1.269       .  A
O539        C549   1.275       .  A
O540        C548   1.272       .  A
O541        C550   1.276       .  A
O542        C551   1.268       .  A
O543        C550   1.274       .  A
O544        C551   1.279       .  A
O545        C552   1.273       .  A
O546        C552   1.278       .  A
C547        C921   1.475       .  S
C548        C898   1.478       .  S
C549       C1388   1.493       .  S
C550       C2627   1.476       .  S
C551        C951   1.479       .  S
C552       C1071   1.494       .  S
Zn553       O557   1.951       .  S
Zn553       O558   2.039       .  S
Zn553       O562   2.020       .  S
Zn553       O569   2.008       .  S
Zn554       O557   1.938       .  S
Zn554       O561   2.004       .  S
Zn554       O565   2.010       .  S
Zn554      O2255   1.986   1_554  S
Zn555       O557   1.960       .  S
Zn555       O560   2.032       .  S
Zn555       O566   2.043       .  S
Zn555      O2259   2.033   1_554  S
Zn556       O557   1.953       .  S
Zn556       O564   2.005       .  S
Zn556       O567   2.052       .  S
Zn556       O568   2.021       .  S
O558        C570   1.275       .  A
O559      Zn2250   1.989       .  S
O559        C571   1.273       .  A
O560        C572   1.275       .  A
O561        C570   1.272       .  A
O562        C572   1.273       .  A
O563      Zn2251   2.053       .  S
O563        C571   1.280       .  A
O564        C573   1.272       .  A
O565        C574   1.272       .  A
O566        C573   1.276       .  A
O567        C574   1.278       .  A
O568        C575   1.276       .  A
O569        C575   1.274       .  A
C570       C1021   1.479       .  S
C571        C861   1.477       .  S
C572       C1328   1.476       .  S
C573        C878   1.489       .  S
C574        C891   1.486       .  S
C575        C868   1.473       .  S
Zn576       O580   1.923       .  S
Zn576       O581   1.995       .  S
Zn576       O585   1.979       .  S
Zn576       O592   1.996       .  S
Zn577       O580   1.949       .  S
Zn577       O582   2.023       .  S
Zn577       O584   2.049       .  S
Zn577       O588   2.036       .  S
Zn578       O580   1.956       .  S
Zn578       O583   2.056       .  S
Zn578       O586   2.050       .  S
Zn578       O589   2.051       .  S
Zn579       O580   1.927       .  S
Zn579       O587   2.002       .  S
Zn579       O590   2.012       .  S
Zn579       O591   2.035       .  S
O581        C593   1.270       .  A
O582        C594   1.274       .  A
O583        C595   1.279       .  A
O584        C593   1.278       .  A
O585        C595   1.268       .  A
O586        C594   1.278       .  A
O587        C596   1.273       .  A
O588        C597   1.279       .  A
O589        C596   1.278       .  A
O590        C597   1.271       .  A
O591        C598   1.274       .  A
O592        C598   1.269       .  A
C593        C848   1.475       .  S
C594        C838   1.484       .  S
C595        C871   1.488       .  S
C596       C1301   1.486       .  S
C597        C858   1.495       .  S
C598       C1001   1.471       .  S
Zn599       O603   1.939       .  S
Zn599       O604   1.994       .  S
Zn599       O608   2.027       .  S
Zn599       O615   2.011       .  S
Zn600       O603   1.960       .  S
Zn600       O605   2.024       .  S
Zn600       O607   2.038       .  S
Zn600       O611   2.036       .  S
Zn601       O603   1.941       .  S
Zn601       O606   2.025       .  S
Zn601       O609   2.020       .  S
Zn601       O612   1.998       .  S
Zn602       O603   1.959       .  S
Zn602       O610   2.043       .  S
Zn602       O613   2.009       .  S
Zn602       O614   2.061       .  S
O604        C616   1.273       .  A
O605        C617   1.273       .  A
O606        C618   1.274       .  A
O607        C616   1.277       .  A
O608        C618   1.274       .  A
O609        C617   1.273       .  A
O610        C619   1.278       .  A
O611        C620   1.276       .  A
O612        C619   1.273       .  A
O613        C620   1.272       .  A
O614        C621   1.279       .  A
O615        C621   1.272       .  A
C616        C818   1.479       .  S
C617       C1091   1.482       .  S
C618       C1151   1.475       .  S
C619        C808   1.487       .  S
C620        C851   1.474       .  S
C621        C828   1.490       .  S
Zn622       O626   1.932       .  S
Zn622       O627   2.000       .  S
Zn622       O631   1.975       .  S
Zn622       O638   2.013       .  S
Zn623       O626   1.953       .  S
Zn623       O628   2.005       .  S
Zn623       O630   2.039       .  S
Zn623      O2330   2.026       .  S
Zn624       O626   1.963       .  S
Zn624       O629   2.059       .  S
Zn624       O632   2.051       .  S
Zn624       O635   2.017       .  S
Zn625       O626   1.943       .  S
Zn625       O633   2.036       .  S
Zn625       O637   2.049       .  S
Zn625      O2332   2.014       .  S
O627        C639   1.271       .  A
O628        C640   1.271       .  A
O629        C641   1.280       .  A
O630        C639   1.276       .  A
O631        C641   1.270       .  A
O632        C640   1.278       .  A
O633        C642   1.277       .  A
O634      Zn2319   2.041   1_554  S
O634        C643   1.279       .  A
O635        C642   1.274       .  A
O636      Zn2321   2.002   1_554  S
O636        C643   1.273       .  A
O637        C644   1.277       .  A
O638        C644   1.272       .  A
C639        C798   1.484       .  S
C640        C888   1.484       .  S
C641        C811   1.482       .  S
C642       C1061   1.485       .  S
C643        C821   1.485       .  S
C644       C1141   1.500       .  S
Zn645       O649   1.939       .  S
Zn645       O650   1.997       .  S
Zn645       O654   1.997       .  S
Zn645       O661   2.008       .  S
Zn646       O649   1.958       .  S
Zn646       O651   1.997       .  S
Zn646       O653   2.053       .  S
Zn646       O657   2.026       .  S
Zn647       O649   1.966       .  S
Zn647       O652   2.050       .  S
Zn647       O655   2.069       .  S
Zn647       O658   2.045       .  S
Zn648       O649   1.955       .  S
Zn648       O656   2.022       .  S
Zn648       O659   2.007       .  S
Zn648       O660   2.022       .  S
O650        C662   1.270       .  A
O651        C663   1.271       .  A
O652        C664   1.279       .  A
O653        C662   1.277       .  A
O654        C664   1.272       .  A
O655        C663   1.280       .  A
O656        C665   1.274       .  A
O657        C666   1.277       .  A
O658        C665   1.277       .  A
O659        C666   1.273       .  A
O660        C667   1.273       .  A
O661        C667   1.272       .  A
C662        C788   1.484       .  S
C663        C831   1.487       .  S
C664        C781   1.473       .  S
C665       C1201   1.492       .  S
C666        C768   1.482       .  S
C667        C911   1.485       .  S
Zn668       O672   1.936       .  S
Zn668       O673   1.999       .  S
Zn668       O677   2.014       .  S
Zn668       O684   2.002       .  S
Zn669       O672   1.960       .  S
Zn669       O674   2.019       .  S
Zn669       O676   2.041       .  S
Zn669       O680   2.040       .  S
Zn670       O672   1.936       .  S
Zn670       O675   2.012       .  S
Zn670       O678   1.999       .  S
Zn670       O681   1.998       .  S
Zn671       O672   1.945       .  S
Zn671       O679   2.027       .  S
Zn671       O682   1.993       .  S
Zn671       O683   2.039       .  S
O673        C685   1.273       .  A
O674        C686   1.273       .  A
O675        C687   1.272       .  A
O676        C685   1.278       .  A
O677        C687   1.273       .  A
O678        C686   1.272       .  A
O679        C688   1.276       .  A
O680        C689   1.276       .  A
O681        C688   1.272       .  A
O682        C689   1.270       .  A
O683        C690   1.277       .  A
O684        C690   1.272       .  A
C685       C2474   1.478       .  S
C686        C901   1.480       .  S
C687       C1178   1.479       .  S
C688        C771   1.469       .  S
C689        C761   1.484       .  S
C690        C801   1.491       .  S
Zn691       O695   1.952       .  S
Zn691       O696   2.032       .  S
Zn691       O700   2.012       .  S
Zn691       O707   2.052       .  S
Zn692       O695   1.940       .  S
Zn692       O697   2.011       .  S
Zn692       O699   2.011       .  S
Zn692       O703   2.032       .  S
Zn693       O695   1.955       .  S
Zn693       O698   2.060       .  S
Zn693       O701   2.047       .  S
Zn693       O704   2.059       .  S
Zn694       O695   1.929       .  S
Zn694       O702   1.988       .  S
Zn694       O705   1.999       .  S
Zn694       O706   1.992       .  S
O696        C708   1.277       .  A
O697        C709   1.274       .  A
O698        C710   1.280       .  A
O699        C708   1.274       .  A
O700        C710   1.273       .  A
O701        C709   1.276       .  A
O702        C711   1.271       .  A
O703        C712   1.275       .  A
O704        C711   1.280       .  A
O705        C712   1.272       .  A
O706        C713   1.270       .  A
O707        C713   1.279       .  A
C708        C748   1.477       .  S
C709        C961   1.493       .  S
C710        C791   1.490       .  S
C711       C2437   1.475   1_554  S
C712       C1261   1.483       .  S
C713        C881   1.485       .  S
Zn714       O718   1.935       .  S
Zn714       O719   1.988       .  S
Zn714       O723   2.003       .  S
Zn714       O730   1.994       .  S
Zn715       O718   1.957       .  S
Zn715       O720   2.029       .  S
Zn715       O722   2.053       .  S
Zn715       O726   2.060       .  S
Zn716       O718   1.949       .  S
Zn716       O721   2.021       .  S
Zn716       O724   2.014       .  S
Zn716       O727   2.001       .  S
Zn717       O718   1.957       .  S
Zn717       O725   2.039       .  S
Zn717       O728   2.013       .  S
Zn717       O729   2.045       .  S
O719        C731   1.271       .  A
O720        C732   1.275       .  A
O721        C733   1.273       .  A
O722        C731   1.279       .  A
O723        C733   1.272       .  A
O724        C732   1.273       .  A
O725        C734   1.277       .  A
O726        C735   1.279       .  A
O727        C734   1.272       .  A
O728        C735   1.272       .  A
O729        C736   1.277       .  A
O730        C736   1.270       .  A
C731        C738   1.480       .  S
C732       C1241   1.486       .  S
C733        C941   1.471       .  S
C734        C751   1.473       .  S
C735        C841   1.503       .  S
C736        C758   1.482       .  S
C737        C738   1.411       .  A
C737        C742   1.410       .  A
C737       Br744   1.931       .  S
C738        C739   1.413       .  A
C739        C740   1.406       .  A
C739       Br746   1.927       .  S
C740        C741   1.405       .  A
C740      Br2441   1.932       .  S
C741       C2407   1.474       .  S
C741        C742   1.410       .  A
C742       Br743   1.924       .  S
Br745      C2436   1.932       .  S
C747        C748   1.408       .  A
C747        C752   1.409       .  A
C747       Br754   1.929       .  S
C748        C749   1.413       .  A
C749        C750   1.407       .  A
C749       Br756   1.930       .  S
C750        C751   1.406       .  A
C750       Br755   1.930       .  S
C751        C752   1.412       .  A
C752       Br753   1.931       .  S
C757        C758   1.412       .  A
C757        C762   1.409       .  A
C757       Br764   1.933       .  S
C758        C759   1.412       .  A
C759        C760   1.410       .  A
C759       Br766   1.933       .  S
C760        C761   1.414       .  A
C760       Br765   1.934       .  S
C761        C762   1.413       .  A
C762       Br763   1.933       .  S
C767        C768   1.418       .  A
C767        C772   1.408       .  A
C767       Br774   1.933       .  S
C768        C769   1.412       .  A
C769        C770   1.407       .  A
C769       Br776   1.931       .  S
C770        C771   1.408       .  A
C770       Br775   1.932       .  S
C771        C772   1.404       .  A
C772       Br773   1.931       .  S
C777        C778   1.412       .  A
C777        C782   1.409       .  A
C777      Br2480   1.930   1_554  S
C778       C2381   1.481   1_554  S
C778        C779   1.414       .  A
C779        C780   1.408       .  A
C779       Br786   1.932   1_554  S
C780        C781   1.407       .  A
C780       Br785   1.931       .  S
C781        C782   1.408       .  A
C782       Br783   1.930       .  S
Br784      C2473   1.930       .  S
C787        C788   1.410       .  A
C787        C792   1.410       .  A
C787       Br794   1.932       .  S
C788        C789   1.411       .  A
C789        C790   1.412       .  A
C789       Br796   1.932       .  S
C790        C791   1.414       .  A
C790       Br795   1.927       .  S
C791        C792   1.413       .  A
C792       Br793   1.927       .  S
C797        C798   1.408       .  A
C797        C802   1.410       .  A
C797      Br2500   1.933       .  S
C798        C799   1.415       .  A
C799        C800   1.410       .  A
C799       Br806   1.935       .  S
C800        C801   1.414       .  A
C800       Br805   1.934       .  S
C801        C802   1.421       .  A
C802       Br803   1.936       .  S
Br804      C2493   1.932   1_554  S
C807        C808   1.417       .  A
C807        C812   1.412       .  A
C807       Br814   1.932       .  S
C808        C809   1.414       .  A
C809        C810   1.406       .  A
C809       Br816   1.936       .  S
C810        C811   1.412       .  A
C810       Br815   1.936       .  S
C811        C812   1.410       .  A
C812       Br813   1.931       .  S
C817        C818   1.411       .  A
C817        C822   1.410       .  A
C817       Br824   1.932       .  S
C818        C819   1.410       .  A
C819        C820   1.406       .  A
C819       Br826   1.934       .  S
C820        C821   1.414       .  A
C820       Br825   1.934       .  S
C821        C822   1.416       .  A
C822       Br823   1.933       .  S
C827        C828   1.418       .  A
C827        C832   1.414       .  A
C827       Br834   1.931       .  S
C828        C829   1.409       .  A
C829        C830   1.410       .  A
C829       Br836   1.930       .  S
C830        C831   1.415       .  A
C830       Br835   1.933       .  S
C831        C832   1.409       .  A
C832       Br833   1.931       .  S
C837        C838   1.410       .  A
C837        C842   1.414       .  A
C837       Br844   1.932       .  S
C838        C839   1.404       .  A
C839        C840   1.412       .  A
C839       Br846   1.933       .  S
C840        C841   1.426       .  A
C840       Br845   1.936       .  S
C841        C842   1.419       .  A
C842       Br843   1.932       .  S
C847        C848   1.412       .  A
C847        C852   1.408       .  A
C847       Br854   1.930       .  S
C848        C849   1.407       .  A
C849        C850   1.409       .  A
C849       Br856   1.930       .  S
C850        C851   1.411       .  A
C850       Br855   1.930       .  S
C851        C852   1.406       .  A
C852       Br853   1.929       .  S
C857        C858   1.421       .  A
C857        C862   1.411       .  A
C857       Br864   1.935       .  S
C858        C859   1.422       .  A
C859        C860   1.407       .  A
C859       Br866   1.936       .  S
C860        C861   1.407       .  A
C860       Br865   1.935       .  S
C861        C862   1.408       .  A
C862       Br863   1.933       .  S
C867        C868   1.403       .  A
C867        C872   1.406       .  A
C867       Br874   1.933       .  S
C868        C869   1.410       .  A
C869        C870   1.408       .  A
C869       Br876   1.932       .  S
C870        C871   1.414       .  A
C870       Br875   1.931       .  S
C871        C872   1.423       .  A
C872       Br873   1.937       .  S
C877        C878   1.415       .  A
C877        C882   1.411       .  A
C877       Br884   1.931       .  S
C878        C879   1.414       .  A
C879        C880   1.409       .  A
C879       Br886   1.930       .  S
C880        C881   1.410       .  A
C880       Br885   1.930       .  S
C881        C882   1.413       .  A
C882       Br883   1.933       .  S
C887        C888   1.410       .  A
C887        C892   1.411       .  A
C887       Br894   1.931       .  S
C888       C2585   1.412       .  A
C889        C890   1.411       .  A
C889       C2584   1.412   1_554  A
C889       Br896   1.933       .  S
C890        C891   1.412       .  A
C890       Br895   1.928       .  S
C891       C2588   1.413   1_554  A
C892       C2587   1.412       .  A
C892       Br893   1.925       .  S
C897        C898   1.412       .  A
C897        C902   1.408       .  A
C897       Br904   1.934       .  S
C898        C899   1.412       .  A
C899        C900   1.406       .  A
C899       Br906   1.935       .  S
C900        C901   1.413       .  A
C900       Br905   1.936       .  S
C901        C902   1.413       .  A
C902       Br903   1.933       .  S
C907        C908   1.409       .  A
C907        C912   1.410       .  A
C907       Br914   1.933       .  S
C908        C909   1.410       .  A
C909        C910   1.406       .  A
C909       Br916   1.934       .  S
C910        C911   1.416       .  A
C910       Br915   1.935       .  S
C911        C912   1.417       .  A
C912       Br913   1.933       .  S
C917        C918   1.414       .  A
C917        C922   1.410       .  A
C917       Br924   1.931       .  S
C918        C919   1.417       .  A
C919        C920   1.409       .  A
C919       Br926   1.933       .  S
C920        C921   1.406       .  A
C920       Br925   1.929       .  S
C921        C922   1.408       .  A
C922       Br923   1.931       .  S
C927        C928   1.411       .  A
C927        C932   1.409       .  A
C927       Br934   1.931       .  S
C928        C929   1.405       .  A
C929        C930   1.407       .  A
C929       Br936   1.929       .  S
C930        C931   1.412       .  A
C930      Br2631   1.931   1_554  S
C931       C2246   1.475   1_554  S
C931        C932   1.408       .  A
C932      Br2629   1.929       .  S
Br933      C2628   1.929       .  S
Br935      C2626   1.932       .  S
C937        C938   1.409       .  A
C937        C942   1.408       .  A
C937       Br944   1.931       .  S
C938        C939   1.407       .  A
C939        C940   1.403       .  A
C939       Br946   1.932       .  S
C940        C941   1.409       .  A
C940       Br945   1.927       .  S
C941        C942   1.409       .  A
C942       Br943   1.928       .  S
C947        C948   1.409       .  A
C947        C952   1.405       .  A
C947       Br954   1.934       .  S
C948        C949   1.411       .  A
C949        C950   1.409       .  A
C949       Br956   1.929       .  S
C950        C951   1.411       .  A
C950       Br955   1.927       .  S
C951        C952   1.414       .  A
C952       Br953   1.934       .  S
C957        C958   1.410       .  A
C957        C962   1.410       .  A
C957       Br964   1.933       .  S
C958        C959   1.411       .  A
C959        C960   1.411       .  A
C959       Br966   1.932       .  S
C960        C961   1.416       .  A
C960       Br965   1.929       .  S
C961        C962   1.417       .  A
C962       Br963   1.935       .  S
C967        C968   1.411       .  A
C967        C972   1.409       .  A
C967       Br974   1.933       .  S
C968       C2177   1.486       .  S
C968        C969   1.416       .  A
C969        C970   1.406       .  A
C969      Br2672   1.923       .  S
C970        C971   1.406       .  A
C970       Br975   1.931       .  S
C971        C972   1.416       .  A
C972       Br973   1.934       .  S
Br976      C2665   1.929   1_554  S
C977        C978   1.411       .  A
C977        C982   1.405       .  A
C977       Br984   1.932       .  S
C978        C979   1.417       .  A
C979        C980   1.407       .  A
C979       Br986   1.935       .  S
C980        C981   1.408       .  A
C980       Br985   1.933       .  S
C981        C982   1.412       .  A
C982       Br983   1.931       .  S
C987        C988   1.414       .  A
C987        C992   1.412       .  A
C987       Br994   1.934       .  S
C988        C989   1.414       .  A
C989        C990   1.414       .  A
C989       Br996   1.933       .  S
C990        C991   1.416       .  A
C990       Br995   1.933       .  S
C991        C992   1.415       .  A
C992       Br993   1.930       .  S
C997        C998   1.409       .  A
C997       C1002   1.409   1_655  A
C997      Br1004   1.928       .  S
C998        C999   1.407       .  A
C999       C1000   1.406   1_655  A
C999      Br1006   1.931       .  S
C1000      C1001   1.409       .  A
C1000     Br1005   1.930       .  S
C1001      C1002   1.408       .  A
C1002     Br1003   1.928       .  S
C1007      C1008   1.409       .  A
C1007      C1012   1.404       .  A
C1007     Br1014   1.936       .  S
C1008      C1009   1.412       .  A
C1009      C1010   1.412       .  A
C1009     Br1016   1.933       .  S
C1010      C1011   1.417       .  A
C1010     Br1015   1.933       .  S
C1011      C1012   1.417       .  A
C1012     Br1013   1.935       .  S
C1017      C1018   1.418       .  A
C1017      C1022   1.408   1_655  A
C1017     Br1024   1.934       .  S
C1018      C1019   1.419       .  A
C1019      C1020   1.411   1_655  A
C1019     Br1026   1.934       .  S
C1020      C1021   1.408       .  A
C1020     Br1025   1.932       .  S
C1021      C1022   1.408       .  A
C1022     Br1023   1.931       .  S
C1027      C1028   1.404       .  A
C1027      C1032   1.407       .  A
C1027     Br1034   1.930       .  S
C1028      C1029   1.409       .  A
C1029      C1030   1.409       .  A
C1029     Br1036   1.932       .  S
C1030      C1031   1.413       .  A
C1030     Br1035   1.931       .  S
C1031      C1032   1.416       .  A
C1032     Br1033   1.932       .  S
C1037      C1038   1.409       .  A
C1037      C1042   1.406       .  A
C1037     Br1044   1.928       .  S
C1038      C1039   1.409       .  A
C1039      C1040   1.408       .  A
C1039     Br1046   1.927       .  S
C1040      C1041   1.409       .  A
C1040     Br1045   1.930       .  S
C1041      C1042   1.409       .  A
C1042     Br1043   1.931       .  S
C1047      C1048   1.420       .  A
C1047      C1052   1.410       .  A
C1047     Br1054   1.932       .  S
C1048      C1049   1.410       .  A
C1049      C1050   1.409       .  A
C1049     Br1056   1.935   1_554  S
C1050      C1051   1.417       .  A
C1050     Br1055   1.932       .  S
C1051      C1052   1.409       .  A
C1052     Br1053   1.934       .  S
C1057      C1058   1.413       .  A
C1057      C1062   1.408   1_655  A
C1057     Br2760   1.934       .  S
C1058      C1059   1.410       .  A
C1059      C1060   1.412   1_655  A
C1059     Br1066   1.925       .  S
C1060      C1061   1.414       .  A
C1060     Br1065   1.933       .  S
C1061      C1062   1.412       .  A
C1062     Br2759   1.932       .  S
Br1063     C2758   1.934   1_554  S
Br1064     C2753   1.936   1_554  S
C1067      C1068   1.413       .  A
C1067      C1072   1.412       .  A
C1067     Br1074   1.933       .  S
C1068      C1069   1.412       .  A
C1069      C1070   1.412       .  A
C1069     Br1076   1.932       .  S
C1070      C1071   1.416       .  A
C1070     Br1075   1.929       .  S
C1071      C1072   1.416       .  A
C1072     Br1073   1.935       .  S
C1077      C1078   1.422       .  A
C1077      C2778   1.408       .  A
C1077     Br1084   1.933       .  S
C1078      C1079   1.421       .  A
C1079      C2776   1.413       .  A
C1079     Br1086   1.935       .  S
C1080      C1081   1.410       .  A
C1080      C2775   1.411   1_554  A
C1080     Br1085   1.933   1_554  S
C1081      C1082   1.409       .  A
C1082      C2773   1.408       .  A
C1082     Br1083   1.935       .  S
C1087      C1088   1.410       .  A
C1087      C1092   1.409   1_655  A
C1087     Br1094   1.929       .  S
C1088      C1089   1.412       .  A
C1089      C1090   1.409   1_655  A
C1089     Br1096   1.925       .  S
C1090      C1091   1.411       .  A
C1090     Br1095   1.933       .  S
C1091      C1092   1.411       .  A
C1092     Br1093   1.926       .  S
C1097      C1098   1.415       .  A
C1097      C1102   1.407       .  A
C1097     Br1104   1.933       .  S
C1098      C1099   1.411       .  A
C1099      C1100   1.408       .  A
C1099     Br1106   1.933       .  S
C1100      C1101   1.417       .  A
C1100     Br1105   1.935       .  S
C1101      C1102   1.410       .  A
C1102     Br1103   1.929       .  S
C1107      C1108   1.412       .  A
C1107      C1112   1.410       .  A
C1107     Br1114   1.932       .  S
C1108      C1109   1.412       .  A
C1109      C1110   1.408       .  A
C1109     Br1116   1.935       .  S
C1110      C1111   1.414       .  A
C1110     Br1115   1.933       .  S
C1111      C1112   1.415       .  A
C1112     Br1113   1.934       .  S
C1117      C1118   1.408       .  A
C1117      C1122   1.408       .  A
C1117     Br1124   1.932       .  S
C1118      C1119   1.417       .  A
C1119      C1120   1.406       .  A
C1119     Br1126   1.935       .  S
C1120      C1121   1.409       .  A
C1120     Br1125   1.934       .  S
C1121      C1122   1.418       .  A
C1122     Br1123   1.934       .  S
C1127      C1128   1.410       .  A
C1127      C1132   1.410       .  A
C1127     Br1134   1.929       .  S
C1128      C1129   1.410       .  A
C1129      C1130   1.405       .  A
C1129     Br1136   1.921       .  S
C1130      C1131   1.405       .  A
C1130     Br1135   1.931       .  S
C1131      C1132   1.410       .  A
C1132     Br1133   1.927       .  S
C1137      C1138   1.407       .  A
C1137      C1142   1.412       .  A
C1137     Br1144   1.934       .  S
C1138      C1139   1.408       .  A
C1139      C1140   1.411       .  A
C1139     Br2842   1.928       .  S
C1140      C1141   1.420       .  A
C1140     Br2841   1.934       .  S
C1141      C1142   1.423       .  A
C1142     Br1143   1.935       .  S
Br1145     C2836   1.934       .  S
Br1146     C2835   1.930       .  S
C1147      C1148   1.407       .  A
C1147      C1152   1.406       .  A
C1147     Br1154   1.930       .  S
C1148      C1149   1.410       .  A
C1149      C1150   1.411       .  A
C1149     Br1156   1.928       .  S
C1150      C1151   1.409       .  A
C1150     Br1155   1.928       .  S
C1151      C1152   1.408       .  A
C1152     Br1153   1.926       .  S
C1157      C1158   1.410       .  A
C1157      C1162   1.408       .  A
C1157     Br1164   1.933       .  S
C1158      C1159   1.404       .  A
C1159      C1160   1.407       .  A
C1159     Br1166   1.929       .  S
C1160      C1161   1.415       .  A
C1160     Br1165   1.932       .  S
C1161      C1162   1.411       .  A
C1162     Br1163   1.931       .  S
C1167      C1168   1.405       .  A
C1167      C1172   1.409       .  A
C1167     Br1174   1.931       .  S
C1168      C1169   1.409       .  A
C1169      C1170   1.411       .  A
C1169     Br1176   1.932       .  S
C1170      C1171   1.414       .  A
C1170     Br1175   1.930       .  S
C1171      C1172   1.417       .  A
C1172     Br1173   1.932       .  S
C1177      C1178   1.412       .  A
C1177      C1182   1.408       .  A
C1177     Br1184   1.933       .  S
C1178      C1179   1.412       .  A
C1179      C1180   1.408       .  A
C1179     Br1186   1.933       .  S
C1180      C1181   1.413       .  A
C1180     Br1185   1.934       .  S
C1181      C1182   1.412       .  A
C1182     Br1183   1.933       .  S
C1187      C1188   1.417       .  A
C1187      C1192   1.412       .  A
C1187     Br1194   1.933       .  S
C1188      C1189   1.408       .  A
C1189      C1190   1.410       .  A
C1189     Br1196   1.933       .  S
C1190      C1191   1.417       .  A
C1190     Br1195   1.928       .  S
C1191      C1192   1.409       .  A
C1192     Br2889   1.931       .  S
Br1193     C2888   1.930       .  S
C1197      C1198   1.417       .  A
C1197      C1202   1.413       .  A
C1197     Br1204   1.934       .  S
C1198      C1199   1.416       .  A
C1199      C1200   1.412       .  A
C1199     Br1206   1.933       .  S
C1200      C1201   1.413       .  A
C1200     Br1205   1.933       .  S
C1201      C1202   1.415       .  A
C1202     Br1203   1.934       .  S
C1207      C1208   1.405       .  A
C1207      C1212   1.408       .  A
C1207     Br1214   1.934       .  S
C1208      C1209   1.409       .  A
C1209      C1210   1.407       .  A
C1209     Br1216   1.932       .  S
C1210      C1211   1.415       .  A
C1210     Br1215   1.934       .  S
C1211      C1212   1.423       .  A
C1212     Br1213   1.935       .  S
C1217      C1218   1.415       .  A
C1217      C1222   1.405       .  A
C1217     Br2920   1.935   1_554  S
C1218      C2016   1.481   1_554  S
C1218      C1219   1.412       .  A
C1219      C1220   1.409       .  A
C1219     Br2922   1.932       .  S
C1220      C1221   1.413       .  A
C1220     Br1225   1.933       .  S
C1221      C1222   1.409       .  A
C1222     Br1223   1.934       .  S
Br1224     C2913   1.935       .  S
Br1226     C2915   1.932       .  S
C1227      C1228   1.403       .  A
C1227      C1232   1.408       .  A
C1227     Br1234   1.933       .  S
C1228      C1229   1.410       .  A
C1229      C1230   1.410       .  A
C1229     Br1236   1.931       .  S
C1230      C1231   1.416       .  A
C1230     Br1235   1.932       .  S
C1231      C1232   1.425       .  A
C1232     Br1233   1.938       .  S
C1237      C1238   1.413       .  A
C1237      C1242   1.408       .  A
C1237     Br1244   1.934       .  S
C1238      C1239   1.412       .  A
C1239      C1240   1.411       .  A
C1239     Br1246   1.933       .  S
C1240      C1241   1.415       .  A
C1240     Br1245   1.934       .  S
C1241      C1242   1.413       .  A
C1242     Br1243   1.934       .  S
C1247      C1248   1.413       .  A
C1247      C1252   1.408   1_565  A
C1247     Br1254   1.935       .  S
C1248      C1249   1.416       .  A
C1249      C1250   1.415   1_565  A
C1249     Br1256   1.933       .  S
C1250      C1251   1.416       .  A
C1250     Br1255   1.933       .  S
C1251      C1252   1.416       .  A
C1252     Br1253   1.935       .  S
C1257      C1258   1.415       .  A
C1257      C1262   1.407       .  A
C1257     Br1264   1.933       .  S
C1258      C1259   1.414       .  A
C1259      C1260   1.411       .  A
C1259     Br1266   1.929       .  S
C1260      C1261   1.412       .  A
C1260     Br1265   1.933       .  S
C1261      C1262   1.412       .  A
C1262     Br1263   1.936       .  S
C1267      C1268   1.410       .  A
C1267      C1272   1.410       .  A
C1267     Br1274   1.930       .  S
C1268      C1945   1.483       .  S
C1268      C1269   1.416       .  A
C1269      C1270   1.408       .  A
C1269     Br2972   1.928       .  S
C1270      C1271   1.404       .  A
C1270     Br1275   1.930       .  S
C1271      C1272   1.410       .  A
C1272     Br1273   1.931       .  S
Br1276     C2965   1.930   1_554  S
C1277      C1278   1.410       .  A
C1277      C1282   1.410       .  A
C1277     Br1284   1.930       .  S
C1278      C1279   1.409       .  A
C1279      C1280   1.407       .  A
C1279     Br1286   1.928       .  S
C1280      C1281   1.410       .  A
C1280     Br1285   1.932       .  S
C1281      C1282   1.410       .  A
C1282     Br1283   1.929       .  S
C1287      C1288   1.413       .  A
C1287      C1292   1.410   1_565  A
C1287     Br1294   1.933       .  S
C1288      C1289   1.412       .  A
C1289      C1290   1.410   1_565  A
C1289     Br1296   1.932       .  S
C1290      C1291   1.413       .  A
C1290     Br1295   1.932       .  S
C1291      C1292   1.413       .  A
C1292     Br1293   1.933       .  S
C1297      C1298   1.416       .  A
C1297      C1302   1.414       .  A
C1297     Br1304   1.929       .  S
C1298      C1299   1.414       .  A
C1299      C1300   1.407       .  A
C1299     Br1306   1.933       .  S
C1300      C1301   1.412       .  A
C1300     Br1305   1.935       .  S
C1301      C1302   1.412       .  A
C1302     Br1303   1.931       .  S
C1307      C1308   1.414       .  A
C1307      C1312   1.417   1_565  A
C1307     Br1314   1.931       .  S
C1308      C1309   1.411       .  A
C1309      C1310   1.409   1_565  A
C1309     Br1316   1.935       .  S
C1310      C1311   1.418       .  A
C1310     Br1315   1.935       .  S
C1311      C1312   1.417       .  A
C1312     Br1313   1.932       .  S
C1317      C1318   1.409       .  A
C1317      C1322   1.411       .  A
C1317     Br1324   1.933       .  S
C1318      C1319   1.416       .  A
C1319      C1320   1.409       .  A
C1319     Br1326   1.933       .  S
C1320      C1321   1.411       .  A
C1320     Br1325   1.933       .  S
C1321      C1322   1.420       .  A
C1322     Br1323   1.934       .  S
C1327      C1328   1.408       .  A
C1327      C1332   1.409       .  A
C1327     Br1334   1.928   1_554  S
C1328      C1329   1.409       .  A
C1329      C1330   1.408       .  A
C1329     Br1336   1.927       .  S
C1330      C1331   1.409       .  A
C1330     Br1335   1.926       .  S
C1331      C1332   1.409       .  A
C1332     Br1333   1.923   1_554  S
C1337      C1338   1.409       .  A
C1337      C1342   1.411       .  A
C1337     Br1344   1.929       .  S
C1338      C1339   1.408       .  A
C1339      C1340   1.407       .  A
C1339     Br1346   1.931       .  S
C1340      C1341   1.412       .  A
C1340     Br1345   1.930       .  S
C1341      C1342   1.412       .  A
C1342     Br1343   1.930       .  S
C1347      C1348   1.409       .  A
C1347      C1352   1.409       .  A
C1347     Br1354   1.931       .  S
C1348      C1349   1.401       .  A
C1349      C1350   1.404       .  A
C1349     Br1356   1.929       .  S
C1350      C1351   1.415       .  A
C1350     Br1355   1.928       .  S
C1351      C1352   1.412       .  A
C1352     Br1353   1.931       .  S
C1357      C1358   1.410       .  A
C1357      C3058   1.414   1_564  A
C1357     Br1364   1.931       .  S
C1358      C1359   1.403       .  A
C1359      C3056   1.403   1_565  A
C1359     Br1366   1.930       .  S
C1360      C1361   1.414       .  A
C1360      C3055   1.401   1_545  A
C1360     Br1365   1.930       .  S
C1361      C1362   1.417       .  A
C1362      C3053   1.414   1_545  A
C1362     Br1363   1.932       .  S
C1367      C1368   1.421       .  A
C1367      C1372   1.412       .  A
C1367     Br1374   1.931       .  S
C1368      C1369   1.411       .  A
C1369      C1370   1.413       .  A
C1369     Br1376   1.933       .  S
C1370      C1371   1.418       .  A
C1370     Br1375   1.930       .  S
C1371      C1372   1.407       .  A
C1372     Br1373   1.933   1_554  S
C1377      C1378   1.412       .  A
C1377      C1382   1.406       .  A
C1377     Br1384   1.930       .  S
C1378      C1379   1.411       .  A
C1379      C1380   1.411       .  A
C1379     Br1386   1.927       .  S
C1380      C1381   1.411       .  A
C1380     Br1385   1.932       .  S
C1381      C1382   1.409       .  A
C1382     Br1383   1.930       .  S
C1387      C1388   1.422       .  A
C1387      C1392   1.407       .  A
C1387     Br1394   1.937       .  S
C1388      C1389   1.421       .  A
C1389      C1390   1.409       .  A
C1389     Br1396   1.932       .  S
C1390      C1391   1.405       .  A
C1390     Br1395   1.932       .  S
C1391      C1392   1.405       .  A
C1392     Br1393   1.934       .  S
C1397      C1398   1.414       .  A
C1397      C1402   1.413       .  A
C1397     Br1404   1.930       .  S
C1398      C1399   1.414       .  A
C1399      C1400   1.406       .  A
C1399     Br1406   1.927       .  S
C1400      C1401   1.409       .  A
C1400     Br1405   1.936       .  S
C1401      C1402   1.410       .  A
C1402     Br1403   1.929       .  S
C1407      C1408   1.409       .  A
C1407      C1412   1.408       .  A
C1407     Br1414   1.929       .  S
C1408      C1409   1.410       .  A
C1409      C1410   1.409       .  A
C1409     Br1416   1.930       .  S
C1410      C1411   1.410       .  A
C1410     Br1415   1.930       .  S
C1411      C1412   1.410       .  A
C1412     Br1413   1.930       .  S
C1417      C1418   1.417       .  A
C1417      C1422   1.409       .  A
C1417     Br1424   1.933       .  S
C1418      C1419   1.424       .  A
C1419      C1420   1.408       .  A
C1419     Br1426   1.937       .  S
C1420      C1421   1.403       .  A
C1420     Br1425   1.932       .  S
C1421      C1422   1.409       .  A
C1422     Br1423   1.931       .  S
C1427      C1428   1.408       .  A
C1427      C1432   1.405       .  A
C1427     Br1434   1.931       .  S
C1428      C1875   1.479   1_554  S
C1428      C1429   1.418       .  A
C1429      C1430   1.407       .  A
C1429     Br3132   1.934   1_554  S
C1430      C1431   1.407       .  A
C1430     Br1435   1.932       .  S
C1431      C1432   1.412       .  A
C1432     Br1433   1.925       .  S
Br1436     C3125   1.934       .  S
C1437      C1438   1.415       .  A
C1437      C1442   1.411   1_655  A
C1437     Br1444   1.933       .  S
C1438      C1439   1.416       .  A
C1439      C1440   1.409   1_655  A
C1439     Br1446   1.936       .  S
C1440      C1441   1.411       .  A
C1440     Br1445   1.928       .  S
C1441      C1442   1.411       .  A
C1442     Br1443   1.928       .  S
C1447      C1448   1.410       .  A
C1447      C1452   1.406       .  A
C1447     Br1454   1.930       .  S
C1448      C1449   1.409       .  A
C1449      C1450   1.408       .  A
C1449     Br1456   1.930       .  S
C1450      C1451   1.409       .  A
C1450     Br1455   1.928       .  S
C1451      C1452   1.408       .  A
C1452     Br1453   1.931       .  S
C1457      C1458   1.418       .  A
C1457      C1462   1.411       .  A
C1457     Br1464   1.933       .  S
C1458      C1459   1.418       .  A
C1459      C1460   1.407       .  A
C1459     Br1466   1.934       .  S
C1460      C1461   1.408       .  A
C1460     Br1465   1.934       .  S
C1461      C1462   1.409       .  A
C1462     Br1463   1.931       .  S
C1467      C1468   1.412       .  A
C1467      C1472   1.409   1_455  A
C1467     Br1474   1.935       .  S
C1468      C1469   1.409       .  A
C1469      C1470   1.411   1_455  A
C1469     Br1476   1.933       .  S
C1470      C1471   1.418       .  A
C1470     Br1475   1.931       .  S
C1471      C1472   1.417       .  A
C1472     Br1473   1.935       .  S
C1477      C1478   1.414       .  A
C1477      C1482   1.409       .  A
C1477     Br1484   1.934       .  S
C1478      C1479   1.413       .  A
C1479      C1480   1.409       .  A
C1479     Br1486   1.926       .  S
C1480      C1481   1.413       .  A
C1480     Br1485   1.935       .  S
C1481      C1482   1.412       .  A
C1482     Br1483   1.928       .  S
C1487      C1488   1.411       .  A
C1487      C1492   1.411       .  A
C1487     Br1494   1.930       .  S
C1488      C1489   1.411       .  A
C1489      C1490   1.406       .  A
C1489     Br1496   1.931       .  S
C1490      C1491   1.409       .  A
C1490     Br1495   1.932       .  S
C1491      C1492   1.410       .  A
C1492     Br1493   1.928       .  S
C1497      C1498   1.404       .  A
C1497      C1502   1.406       .  A
C1497     Br1504   1.928       .  S
C1498      C1499   1.410       .  A
C1499      C1500   1.406       .  A
C1499     Br1506   1.929       .  S
C1500      C1501   1.408       .  A
C1500     Br1505   1.930       .  S
C1501      C1502   1.415       .  A
C1502     Br1503   1.933       .  S
C1507      C1508   1.412       .  A
C1507      C1512   1.411       .  A
C1507     Br1514   1.923       .  S
C1508      C1509   1.413       .  A
C1509      C1510   1.411       .  A
C1509     Br1516   1.931       .  S
C1510      C1511   1.412       .  A
C1510     Br1515   1.925       .  S
C1511      C1512   1.411       .  A
C1512     Br1513   1.931       .  S
C1517      C1518   1.416       .  A
C1517      C1522   1.409       .  A
C1517     Br1524   1.934       .  S
C1518      C1519   1.418       .  A
C1519      C1520   1.408       .  A
C1519     Br1526   1.936       .  S
C1520      C1521   1.409       .  A
C1520     Br1525   1.935       .  S
C1521      C1522   1.410       .  A
C1522     Br1523   1.930       .  S
C1527      C1528   1.411       .  A
C1527      C1532   1.412   1_655  A
C1527     Br1534   1.928       .  S
C1528      C1529   1.409       .  A
C1529      C1530   1.406   1_655  A
C1529     Br1536   1.919       .  S
C1530      C1531   1.408       .  A
C1530     Br1535   1.934       .  S
C1531      C1532   1.411       .  A
C1532     Br1533   1.929       .  S
C1537      C1538   1.410       .  A
C1537      C1542   1.408   1_565  A
C1537     Br1544   1.931       .  S
C1538      C1539   1.411       .  A
C1539      C1540   1.407   1_565  A
C1539     Br1546   1.929       .  S
C1540      C1541   1.408       .  A
C1540     Br1545   1.931       .  S
C1541      C1542   1.410       .  A
C1542     Br1543   1.928       .  S
C1547      C1548   1.410       .  A
C1547      C1552   1.409       .  A
C1547     Br1554   1.931   1_554  S
C1548      C1549   1.408       .  A
C1549      C1550   1.402       .  A
C1549     Br1556   1.934       .  S
C1550      C1551   1.411       .  A
C1550     Br1555   1.934       .  S
C1551      C1552   1.411       .  A
C1552     Br1553   1.931   1_554  S
C1557      C1558   1.407       .  A
C1557      C1562   1.413   1_655  A
C1557     Br1564   1.933       .  S
C1558      C1559   1.404       .  A
C1559      C1560   1.410   1_655  A
C1559     Br1566   1.935       .  S
C1560      C1561   1.425       .  A
C1560     Br1565   1.931       .  S
C1561      C1562   1.424       .  A
C1562     Br1563   1.935       .  S
C1567      C1568   1.414       .  A
C1567      C1572   1.408       .  A
C1567     Br1574   1.934       .  S
C1568      C1569   1.409       .  A
C1569      C1570   1.404       .  A
C1569     Br1576   1.934       .  S
C1570      C1571   1.415       .  A
C1570     Br1575   1.936       .  S
C1571      C1572   1.411       .  A
C1572     Br1573   1.933       .  S
C1577      C1578   1.412       .  A
C1577      C1582   1.406       .  A
C1577     Br1584   1.922       .  S
C1578      C1579   1.407       .  A
C1579      C1580   1.408       .  A
C1579     Br1586   1.932       .  S
C1580      C1581   1.418       .  A
C1580     Br1585   1.934       .  S
C1581      C1582   1.408       .  A
C1582     Br1583   1.933       .  S
C1587      C1588   1.415       .  A
C1587      C1592   1.409   1_545  A
C1587     Br1594   1.934       .  S
C1588      C3285   1.424       .  A
C1589      C1590   1.412   1_545  A
C1589      C3284   1.419   1_554  A
C1589     Br1596   1.931       .  S
C1590      C1591   1.409       .  A
C1590     Br1595   1.933       .  S
C1591      C3288   1.416   1_554  A
C1592      C3287   1.411       .  A
C1592     Br1593   1.931       .  S
C1597      C1598   1.411       .  A
C1597      C1602   1.409       .  A
C1597     Br1604   1.934       .  S
C1598      C1599   1.411       .  A
C1599      C1600   1.412       .  A
C1599     Br1606   1.929       .  S
C1600      C1601   1.412       .  A
C1600     Br1605   1.927       .  S
C1601      C1602   1.413       .  A
C1602     Br1603   1.929       .  S
C1607      C1608   1.409       .  A
C1607      C1612   1.406       .  A
C1607     Br1614   1.934       .  S
C1608      C1609   1.410       .  A
C1609      C1610   1.410       .  A
C1609     Br1616   1.931       .  S
C1610      C1611   1.417       .  A
C1610     Br1615   1.933       .  S
C1611      C1612   1.417       .  A
C1612     Br1613   1.936       .  S
C1617      C1618   1.413       .  A
C1617      C1622   1.412   1_565  A
C1617     Br1624   1.933       .  S
C1618      C1619   1.409       .  A
C1619      C1620   1.409   1_565  A
C1619     Br1626   1.929       .  S
C1620      C1621   1.415       .  A
C1620     Br1625   1.932       .  S
C1621      C1622   1.415       .  A
C1622     Br1623   1.933       .  S
C1627      C1628   1.412       .  A
C1627      C1632   1.411       .  A
C1627     Br1634   1.931       .  S
C1628      C1629   1.408       .  A
C1629      C1630   1.410       .  A
C1629     Br1636   1.925       .  S
C1630      C1631   1.410       .  A
C1630     Br1635   1.930       .  S
C1631      C1632   1.408       .  A
C1632     Br1633   1.928       .  S
C1637      C1638   1.408       .  A
C1637      C1642   1.407       .  A
C1637     Br1644   1.930       .  S
C1638      C1639   1.410       .  A
C1639      C1640   1.414       .  A
C1639     Br1646   1.928       .  S
C1640      C1641   1.412       .  A
C1640     Br1645   1.928       .  S
C1641      C1642   1.410       .  A
C1642     Br1643   1.924       .  S
C1647      C1648   1.409       .  A
C1647      C1652   1.403       .  A
C1647     Br1654   1.932       .  S
C1648      C1649   1.411       .  A
C1649      C1650   1.410       .  A
C1649     Br1656   1.930       .  S
C1650      C1651   1.410       .  A
C1650     Br1655   1.930       .  S
C1651      C1652   1.411       .  A
C1652     Br1653   1.934       .  S
C1657      C1658   1.407       .  A
C1657      C1662   1.406       .  A
C1657     Br1664   1.933       .  S
C1658      C1659   1.407       .  A
C1659      C1660   1.410       .  A
C1659     Br1666   1.932       .  S
C1660      C1661   1.419       .  A
C1660     Br3361   1.933       .  S
C1661      C1718   1.489       .  S
C1661      C1662   1.419       .  A
C1662     Br1663   1.936       .  S
Br1665     C3356   1.933   1_554  S
C1667      C1668   1.409       .  A
C1667      C1672   1.411       .  A
C1667     Br1674   1.931       .  S
C1668      C1669   1.409       .  A
C1669      C1670   1.405       .  A
C1669     Br1676   1.933       .  S
C1670      C1671   1.415       .  A
C1670     Br1675   1.934       .  S
C1671      C1672   1.418       .  A
C1672     Br1673   1.933       .  S
C1677      C1678   1.409       .  A
C1677      C1682   1.408   1_565  A
C1677     Br1684   1.929       .  S
C1678      C1679   1.410       .  A
C1679      C1680   1.411   1_565  A
C1679     Br1686   1.930       .  S
C1680      C1681   1.412       .  A
C1680     Br1685   1.929       .  S
C1681      C1682   1.408       .  A
C1682     Br1683   1.923       .  S
C1687      C1688   1.411       .  A
C1687      C1692   1.409       .  A
C1687     Br1694   1.931       .  S
C1688      C1689   1.408       .  A
C1689      C1690   1.408       .  A
C1689     Br3392   1.931       .  S
C1690      C1691   1.412       .  A
C1690     Br1695   1.928       .  S
C1691      C1692   1.411       .  A
C1692     Br1693   1.929       .  S
Br1696     C3385   1.931       .  S
Zn1697     O1701   1.924       .  S
Zn1697     O1702   1.996       .  S
Zn1697     O1706   1.986       .  S
Zn1697     O1713   2.007       .  S
Zn1698     O1701   1.953       .  S
Zn1698     O1703   1.992       .  S
Zn1698     O1705   2.051       .  S
Zn1698     O1709   2.038       .  S
Zn1699     O1701   1.958       .  S
Zn1699     O1704   2.052       .  S
Zn1699     O1707   2.051       .  S
Zn1699     O1710   2.050       .  S
Zn1700     O1701   1.929       .  S
Zn1700     O1708   2.005       .  S
Zn1700     O1711   1.999       .  S
Zn1700     O1712   2.020       .  S
O1702      C1714   1.269       .  A
O1703      C1715   1.271       .  A
O1704      C1716   1.280       .  A
O1705      C1714   1.276       .  A
O1706      C1716   1.273       .  A
O1707      C1715   1.280       .  A
O1708      C1717   1.272       .  A
O1709      C1718   1.277       .  A
O1710      C1717   1.276       .  A
O1711      C1718   1.272       .  A
O1712      C1719   1.274       .  A
O1713      C1719   1.273       .  A
C1714      C3374   1.476       .  S
C1715      C3387   1.479       .  S
C1716      C3364   1.480       .  S
C1717      C3334   1.482       .  S
C1719      C3344   1.473       .  S
Zn1720     O1724   1.958       .  S
Zn1720     O1725   2.033       .  S
Zn1720     O1729   2.016       .  S
Zn1720     O1736   2.048       .  S
Zn1721     O1724   1.942       .  S
Zn1721     O1726   2.019       .  S
Zn1721     O1728   2.006       .  S
Zn1721     O1732   2.038       .  S
Zn1722     O1724   1.960       .  S
Zn1722     O1727   2.034       .  S
Zn1722     O1730   2.025       .  S
Zn1722     O1733   2.042       .  S
Zn1723     O1724   1.935       .  S
Zn1723     O1731   1.994       .  S
Zn1723     O1734   2.012       .  S
Zn1723     O1735   1.999       .  S
O1725      C1737   1.276       .  A
O1726      C1738   1.274       .  A
O1727      C1739   1.276       .  A
O1728      C1737   1.273       .  A
O1729      C1739   1.273       .  A
O1730      C1738   1.274       .  A
O1731      C1740   1.273       .  A
O1732      C1741   1.276       .  A
O1733      C1740   1.278       .  A
O1734      C1741   1.273       .  A
O1735      C1742   1.270       .  A
O1736      C1742   1.278       .  A
C1737      C3367   1.488       .  S
C1738      C3294   1.480       .  S
C1739      C3324   1.481       .  S
C1740      C3354   1.477       .  S
C1741      C3304   1.484       .  S
C1742      C3314   1.482       .  S
Zn1743     O1747   1.948       .  S
Zn1743     O1748   2.041       .  S
Zn1743     O1759   1.991       .  S
Zn1744     O1747   1.935       .  S
Zn1744     O1749   1.999       .  S
Zn1744     O1751   1.992       .  S
Zn1744     O1755   1.979       .  S
Zn1745     O1747   1.947       .  S
Zn1745     O1753   2.008       .  S
Zn1745     O1756   2.015       .  S
Zn1746     O1747   1.961       .  S
Zn1746     O1754   2.049       .  S
Zn1746     O1757   2.044       .  S
Zn1746     O1758   2.059       .  S
O1748      C1760   1.275       .  A
O1749      C1761   1.271       .  A
O1750      C1762   1.274       .  A
O1751      C1760   1.269       .  A
O1752      C1762   1.277       .  A
O1753      C1761   1.271       .  A
O1754      C1763   1.277       .  A
O1755      C1764   1.270       .  A
O1756      C1763   1.273       .  A
O1757      C1764   1.278       .  A
O1758      C1765   1.279       .  A
O1759      C1765   1.270       .  A
C1760      C3384   1.479       .  S
C1761      C3244   1.471       .  S
C1762      C3264   1.478       .  S
C1763      C3254   1.485       .  S
C1764      C3277   1.475       .  S
C1765      C3287   1.481       .  S
Zn1766     O1770   1.933       .  S
Zn1766     O1771   1.993       .  S
Zn1766     O1775   1.994       .  S
Zn1766     O1782   1.995       .  S
Zn1767     O1770   1.956       .  S
Zn1767     O1772   2.007       .  S
Zn1767     O1774   2.047       .  S
Zn1767     O1778   2.022       .  S
Zn1768     O1770   1.955       .  S
Zn1768     O1773   2.037       .  S
Zn1768     O1776   2.038       .  S
Zn1768     O1779   2.034       .  S
Zn1769     O1770   1.952       .  S
Zn1769     O1777   2.029       .  S
Zn1769     O1780   2.018       .  S
Zn1769     O1781   2.038       .  S
O1771      C1783   1.269       .  A
O1772      C1784   1.271       .  A
O1773      C1785   1.277       .  A
O1774      C1783   1.277       .  A
O1775      C1785   1.272       .  A
O1776      C1784   1.276       .  A
O1777      C1786   1.276       .  A
O1778      C1787   1.277       .  A
O1779      C1786   1.275       .  A
O1780      C1787   1.275       .  A
O1781      C1788   1.275       .  A
O1782      C1788   1.270       .  A
C1783      C3327   1.476       .  S
C1784      C3234   1.478       .  S
C1785      C3267   1.483       .  S
C1786      C3224   1.481       .  S
C1787      C3274   1.489       .  S
C1788      C3214   1.488       .  S
Zn1789     O1793   1.948       .  S
Zn1789     O1794   2.003       .  S
Zn1789     O1798   2.035       .  S
Zn1789     O1805   2.027       .  S
Zn1790     O1793   1.964       .  S
Zn1790     O1795   2.050       .  S
Zn1790     O1797   2.056       .  S
Zn1790     O1801   2.036       .  S
Zn1791     O1793   1.936       .  S
Zn1791     O1796   1.998       .  S
Zn1791     O1799   1.995       .  S
Zn1791     O1802   2.008       .  S
Zn1792     O1793   1.942       .  S
Zn1792     O1800   2.031       .  S
Zn1792     O1803   2.005       .  S
Zn1792     O1804   2.015       .  S
O1794      C1806   1.272       .  A
O1795      C1807   1.279       .  A
O1796      C1808   1.271       .  A
O1797      C1806   1.279       .  A
O1798      C1808   1.276       .  A
O1799      C1807   1.272       .  A
O1800      C1809   1.274       .  A
O1801      C1810   1.275       .  A
O1802      C1809   1.273       .  A
O1803      C1810   1.274       .  A
O1804      C1811   1.274       .  A
O1805      C1811   1.276       .  A
C1806      C3204   1.485       .  S
C1807      C3187   1.475       .  S
C1808      C3237   1.474       .  S
C1809      C3167   1.483       .  S
C1810      C3174   1.484       .  S
C1811      C3194   1.474       .  S
Zn1812     O1816   1.959       .  S
Zn1812     O1817   2.011       .  S
Zn1812     O1821   2.046       .  S
Zn1813     O1816   1.956       .  S
Zn1813     O1818   2.051       .  S
Zn1813     O1820   2.048       .  S
Zn1813     O1824   2.034       .  S
Zn1814     O1816   1.933       .  S
Zn1814     O1819   1.989       .  S
Zn1814     O1822   1.985       .  S
Zn1814     O1825   2.006       .  S
Zn1815     O1816   1.942       .  S
Zn1815     O1823   2.019       .  S
Zn1815     O1826   2.001       .  S
O1817      C1829   1.272       .  A
O1818      C1830   1.278       .  A
O1819      C1831   1.270       .  A
O1820      C1829   1.279       .  A
O1821      C1831   1.277       .  A
O1822      C1830   1.270       .  A
O1823      C1832   1.273       .  A
O1824      C1833   1.275       .  A
O1825      C1832   1.272       .  A
O1826      C1833   1.271       .  A
O1827      C1834   1.272       .  A
O1828      C1834   1.277       .  A
C1829      C3284   1.489       .  S
C1830      C3184   1.474       .  S
C1831      C3154   1.482       .  S
C1832      C3144   1.475       .  S
C1833      C3134   1.488       .  S
C1834      C3197   1.475       .  S
Zn1835     O1839   1.957       .  S
Zn1835     O1840   2.004       .  S
Zn1835     O1844   2.046       .  S
Zn1835     O1851   2.031       .  S
Zn1836     O1839   1.958       .  S
Zn1836     O1841   2.051       .  S
Zn1836     O1843   2.051       .  S
Zn1836     O1847   2.052       .  S
Zn1837     O1839   1.935       .  S
Zn1837     O1842   2.009       .  S
Zn1837     O1845   1.992       .  S
Zn1837     O1848   2.007       .  S
Zn1838     O1839   1.943       .  S
Zn1838     O1846   2.028       .  S
Zn1838     O1849   2.024       .  S
Zn1838     O1850   2.013       .  S
O1840      C1852   1.271       .  A
O1841      C1853   1.279       .  A
O1842      C1854   1.271       .  A
O1843      C1852   1.277       .  A
O1844      C1854   1.277       .  A
O1845      C1853   1.272       .  A
O1846      C1855   1.273       .  A
O1847      C1856   1.278       .  A
O1848      C1855   1.272       .  A
O1849      C1856   1.275       .  A
O1850      C1857   1.276       .  A
O1851      C1857   1.277       .  A
C1852      C3377   1.479       .  S
C1853      C3114   1.489       .  S
C1854      C3207   1.485       .  S
C1855      C3104   1.473       .  S
C1856      C3094   1.489       .  S
C1857      C3127   1.485       .  S
Zn1858     O1862   1.927       .  S
Zn1858     O1863   1.977       .  S
Zn1858     O1867   1.994       .  S
Zn1858     O1874   1.981       .  S
Zn1859     O1862   1.954       .  S
Zn1859     O1864   2.038       .  S
Zn1859     O1866   2.044       .  S
Zn1859     O1870   2.038       .  S
Zn1860     O1862   1.938       .  S
Zn1860     O1865   2.034       .  S
Zn1860     O1868   2.006       .  S
Zn1860     O1871   2.008       .  S
Zn1861     O1862   1.956       .  S
Zn1861     O1869   2.026       .  S
Zn1861     O1872   2.014       .  S
Zn1861     O1873   2.057       .  S
O1863      C1875   1.269       .  A
O1864      C1876   1.277       .  A
O1865      C1877   1.275       .  A
O1866      C1875   1.278       .  A
O1867      C1877   1.270       .  A
O1868      C1876   1.273       .  A
O1869      C1878   1.276       .  A
O1870      C1879   1.276       .  A
O1871      C1878   1.274       .  A
O1872      C1879   1.273       .  A
O1873      C1880   1.279       .  A
O1874      C1880   1.268       .  A
C1876      C3074   1.481       .  S
C1877      C3087   1.478       .  S
C1878      C3117   1.475       .  S
C1879      C3317   1.489       .  S
C1880      C3157   1.484       .  S
Zn1881     O1885   1.956       .  S
Zn1881     O1886   2.036       .  S
Zn1881     O1890   2.052       .  S
Zn1881     O1897   2.022       .  S
Zn1882     O1885   1.968       .  S
Zn1882     O1889   2.024       .  S
Zn1882     O1893   2.070       .  S
Zn1883     O1885   1.938       .  S
Zn1883     O1888   2.027       .  S
Zn1883     O1894   2.006       .  S
Zn1884     O1885   1.958       .  S
Zn1884     O1892   2.032       .  S
Zn1884     O1895   1.996       .  S
Zn1884     O1896   2.015       .  S
O1886      C1898   1.277       .  A
O1887      C1899   1.281       .  A
O1888      C1900   1.273       .  A
O1889      C1898   1.275       .  A
O1890      C1900   1.276       .  A
O1891      C1899   1.269       .  A
O1892      C1901   1.274       .  A
O1893      C1902   1.280       .  A
O1894      C1901   1.273       .  A
O1895      C1902   1.270       .  A
O1896      C1903   1.275       .  A
O1897      C1903   1.276       .  A
C1898      C3027   1.483       .  S
C1899      C3034   1.477       .  S
C1900      C3257   1.506       .  S
C1901      C3054   1.478       .  S
C1902      C3067   1.492       .  S
C1903      C3047   1.479       .  S
Zn1904     O1908   1.935       .  S
Zn1904     O1909   2.005       .  S
Zn1904     O1913   1.993       .  S
Zn1904     O1920   1.989       .  S
Zn1905     O1908   1.953       .  S
Zn1905     O1910   2.013       .  S
Zn1905     O1912   2.038       .  S
Zn1905     O1916   2.017       .  S
Zn1906     O1908   1.972       .  S
Zn1906     O1911   2.056       .  S
Zn1906     O1914   2.035       .  S
Zn1906     O1917   2.062       .  S
Zn1907     O1908   1.954       .  S
Zn1907     O1915   2.000       .  S
Zn1907     O1918   2.022       .  S
Zn1907     O1919   2.048       .  S
O1909      C1921   1.272       .  A
O1910      C1922   1.274       .  A
O1911      C1923   1.279       .  A
O1912      C1921   1.274       .  A
O1913      C1923   1.272       .  A
O1914      C1922   1.276       .  A
O1915      C1924   1.272       .  A
O1916      C1925   1.275       .  A
O1917      C1924   1.278       .  A
O1918      C1925   1.275       .  A
O1919      C1926   1.277       .  A
O1920      C1926   1.269       .  A
C1921      C2994   1.492       .  S
C1922      C3227   1.477       .  S
C1923      C3037   1.480       .  S
C1924      C3004   1.489       .  S
C1925      C3044   1.471       .  S
C1926      C3014   1.485       .  S
Zn1927     O1931   1.943       .  S
Zn1927     O1932   2.013       .  S
Zn1927     O1936   2.012       .  S
Zn1927     O1943   1.988       .  S
Zn1928     O1931   1.957       .  S
Zn1928     O1933   2.040       .  S
Zn1928     O1935   2.049       .  S
Zn1928     O1939   2.003       .  S
Zn1929     O1931   1.945       .  S
Zn1929     O1934   2.014       .  S
Zn1929     O1937   2.014       .  S
Zn1929     O1940   1.995       .  S
Zn1930     O1931   1.970       .  S
Zn1930     O1938   2.046       .  S
Zn1930     O1941   2.065       .  S
Zn1930     O1942   2.065       .  S
O1932      C1944   1.272       .  A
O1933      C1945   1.278       .  A
O1934      C1946   1.272       .  A
O1935      C1944   1.278       .  A
O1936      C1946   1.273       .  A
O1937      C1945   1.274       .  A
O1938      C1947   1.276       .  A
O1939      C1948   1.271       .  A
O1940      C1947   1.271       .  A
O1941      C1948   1.280       .  A
O1942      C1949   1.281       .  A
O1943      C1949   1.270       .  A
C1944      C2984   1.487       .  S
C1946      C3347   1.473       .  S
C1947      C2954   1.487       .  S
C1948      C3064   1.493       .  S
C1949      C2974   1.476       .  S
Zn1950     O1954   1.941       .  S
Zn1950     O1955   2.008       .  S
Zn1950     O1959   2.026       .  S
Zn1950     O1966   2.016       .  S
Zn1951     O1954   1.971       .  S
Zn1951     O1956   2.055       .  S
Zn1951     O1958   2.040       .  S
Zn1951     O1962   2.049       .  S
Zn1952     O1954   1.941       .  S
Zn1952     O1957   2.015       .  S
Zn1952     O1960   1.993       .  S
Zn1952     O1963   2.004       .  S
Zn1953     O1954   1.950       .  S
Zn1953     O1961   2.044       .  S
Zn1953     O1964   1.996       .  S
Zn1953     O1965   2.034       .  S
O1955      C1967   1.273       .  A
O1956      C1968   1.279       .  A
O1957      C1969   1.273       .  A
O1958      C1967   1.276       .  A
O1959      C1969   1.274       .  A
O1960      C1968   1.272       .  A
O1961      C1970   1.277       .  A
O1962      C1971   1.277       .  A
O1963      C1970   1.271       .  A
O1964      C1971   1.271       .  A
O1965      C1972   1.276       .  A
O1966      C1972   1.274       .  A
C1967      C3307   1.494       .  S
C1968      C2977   1.476       .  S
C1969      C2934   1.483       .  S
C1970      C3017   1.490       .  S
C1971      C2944   1.489       .  S
C1972      C2967   1.475       .  S
Zn1973     O1977   1.948       .  S
Zn1973     O1978   2.010       .  S
Zn1973     O1982   2.016       .  S
Zn1973     O1989   2.037       .  S
Zn1974     O1977   1.951       .  S
Zn1974     O1979   2.033       .  S
Zn1974     O1981   2.048       .  S
Zn1974     O1985   2.039       .  S
Zn1975     O1977   1.936       .  S
Zn1975     O1980   2.006       .  S
Zn1975     O1983   2.025       .  S
Zn1975     O1986   2.041       .  S
Zn1976     O1977   1.932       .  S
Zn1976     O1984   2.027       .  S
Zn1976     O1987   1.995       .  S
Zn1976     O1988   2.021       .  S
O1978      C1990   1.271       .  A
O1979      C1991   1.275       .  A
O1980      C1992   1.274       .  A
O1981      C1990   1.277       .  A
O1982      C1992   1.276       .  A
O1983      C1991   1.276       .  A
O1984      C1993   1.275       .  A
O1985      C1994   1.278       .  A
O1986      C1993   1.276       .  A
O1987      C1994   1.271       .  A
O1988      C1995   1.274       .  A
O1989      C1995   1.276       .  A
C1990      C2987   1.487       .  S
C1991      C3097   1.482       .  S
C1992      C2917   1.476       .  S
C1993      C2894   1.498       .  S
C1994      C2907   1.487       .  S
C1995      C2924   1.482       .  S
Zn1996     O2000   1.945       .  S
Zn1996     O2001   2.020       .  S
Zn1996     O2005   2.046       .  S
Zn1996     O2012   1.993       .  S
Zn1997     O2000   1.943       .  S
Zn1997     O2002   2.021       .  S
Zn1997     O2004   2.007       .  S
Zn1997     O2008   2.013       .  S
Zn1998     O2000   1.935       .  S
Zn1998     O2003   2.001       .  S
Zn1998     O2006   2.011       .  S
Zn1998     O2009   1.978       .  S
Zn1999     O2000   1.968       .  S
Zn1999     O2007   2.044       .  S
Zn1999     O2010   2.024       .  S
Zn1999     O2011   2.055       .  S
O2001      C2013   1.275       .  A
O2002      C2014   1.274       .  A
O2003      C2015   1.271       .  A
O2004      C2013   1.273       .  A
O2005      C2015   1.277       .  A
O2006      C2014   1.273       .  A
O2007      C2016   1.278       .  A
O2008      C2017   1.273       .  A
O2009      C2016   1.270       .  A
O2010      C2017   1.274       .  A
O2011      C2018   1.278       .  A
O2012      C2018   1.271       .  A
C2013      C2904   1.475       .  S
C2014      C2877   1.481       .  S
C2015      C2884   1.484       .  S
C2017      C3077   1.479       .  S
C2018      C2947   1.491       .  S
Zn2019     O2023   1.944       .  S
Zn2019     O2024   1.991       .  S
Zn2019     O2028   2.036       .  S
Zn2019     O2035   2.056       .  S
Zn2020     O2023   1.970       .  S
Zn2020     O2025   2.038       .  S
Zn2020     O2027   2.073       .  S
Zn2020     O2031   2.065       .  S
Zn2021     O2023   1.937       .  S
Zn2021     O2026   1.999       .  S
Zn2021     O2029   2.001       .  S
Zn2021     O2032   2.030       .  S
Zn2022     O2023   1.935       .  S
Zn2022     O2030   2.014       .  S
Zn2022     O2033   1.993       .  S
Zn2022     O2034   1.995       .  S
O2024      C2036   1.269       .  A
O2025      C2037   1.276       .  A
O2026      C2038   1.272       .  A
O2027      C2036   1.280       .  A
O2028      C2038   1.278       .  A
O2029      C2037   1.272       .  A
O2030      C2039   1.272       .  A
O2031      C2040   1.282       .  A
O2032      C2039   1.273       .  A
O2033      C2040   1.272       .  A
O2034      C2041   1.270       .  A
O2035      C2041   1.278       .  A
C2036      C3007   1.498       .  S
C2037      C3164   1.485       .  S
C2038      C2854   1.472       .  S
C2039      C2844   1.474       .  S
C2040      C2867   1.486       .  S
C2041      C2927   1.501       .  S
Zn2042     O2046   1.928       .  S
Zn2042     O2051   1.980       .  S
Zn2042     O2058   2.019       .  S
Zn2043     O2046   1.960       .  S
Zn2043     O2048   2.058       .  S
Zn2043     O2054   2.042       .  S
Zn2044     O2046   1.961       .  S
Zn2044     O2049   2.058       .  S
Zn2044     O2052   2.014       .  S
Zn2044     O2055   2.037       .  S
Zn2045     O2046   1.944       .  S
Zn2045     O2053   2.009       .  S
Zn2045     O2056   2.017       .  S
Zn2045     O2057   2.027       .  S
O2047      C2059   1.271       .  A
O2048      C2060   1.280       .  A
O2049      C2061   1.278       .  A
O2050      C2059   1.280       .  A
O2051      C2061   1.269       .  A
O2052      C2060   1.273       .  A
O2053      C2062   1.274       .  A
O2054      C2063   1.277       .  A
O2055      C2062   1.278       .  A
O2056      C2063   1.274       .  A
O2057      C2064   1.274       .  A
O2058      C2064   1.273       .  A
C2059      C2864   1.475       .  S
C2060      C2887   1.488       .  S
C2061      C3057   1.489       .  S
C2062      C2857   1.479       .  S
C2063      C2834   1.481       .  S
C2064      C3137   1.484       .  S
Zn2065     O2069   1.952       .  S
Zn2065     O2070   2.023       .  S
Zn2065     O2074   1.987       .  S
Zn2065     O2081   2.018       .  S
Zn2066     O2069   1.937       .  S
Zn2066     O2071   1.990       .  S
Zn2066     O2073   1.988       .  S
Zn2066     O2077   2.011       .  S
Zn2067     O2069   1.953       .  S
Zn2067     O2072   2.052       .  S
Zn2067     O2075   2.036       .  S
Zn2067     O2078   2.016       .  S
Zn2068     O2069   1.945       .  S
Zn2068     O2076   2.046       .  S
Zn2068     O2079   2.041       .  S
Zn2068     O2080   2.004       .  S
O2070      C2082   1.274       .  A
O2071      C2083   1.272       .  A
O2072      C2084   1.277       .  A
O2073      C2082   1.269       .  A
O2074      C2084   1.269       .  A
O2075      C2083   1.277       .  A
O2076      C2085   1.278       .  A
O2077      C2086   1.273       .  A
O2078      C2085   1.273       .  A
O2079      C2086   1.276       .  A
O2080      C2087   1.274       .  A
O2081      C2087   1.275       .  A
C2082      C2817   1.477       .  S
C2083      C2804   1.483       .  S
C2084      C2824   1.477       .  S
C2085      C2784   1.499       .  S
C2086      C3177   1.486       .  S
C2087      C2794   1.479       .  S
Zn2088     O2092   1.948       .  S
Zn2088     O2093   2.002       .  S
Zn2088     O2104   2.055       .  S
Zn2089     O2092   1.964       .  S
Zn2089     O2094   2.057       .  S
Zn2089     O2096   2.039       .  S
Zn2089     O2100   2.044       .  S
Zn2090     O2092   1.932       .  S
Zn2090     O2098   1.996       .  S
Zn2090     O2101   2.022       .  S
Zn2091     O2092   1.933       .  S
Zn2091     O2099   2.006       .  S
Zn2091     O2102   1.989       .  S
Zn2091     O2103   1.997       .  S
O2093      C2105   1.271       .  A
O2094      C2106   1.278       .  A
O2095      C2107   1.271       .  A
O2096      C2105   1.276       .  A
O2097      C2107   1.277       .  A
O2098      C2106   1.272       .  A
O2099      C2108   1.272       .  A
O2100      C2109   1.278       .  A
O2101      C2108   1.274       .  A
O2102      C2109   1.272       .  A
O2103      C2110   1.270       .  A
O2104      C2110   1.278       .  A
C2105      C2774   1.493       .  S
C2106      C2754   1.487       .  S
C2107      C2807   1.480       .  S
C2108      C3147   1.475       .  S
C2109      C2797   1.483       .  S
C2110      C2764   1.482       .  S
Zn2111     O2115   1.925       .  S
Zn2111     O2116   1.993       .  S
Zn2111     O2120   1.993       .  S
Zn2111     O2127   1.989       .  S
Zn2112     O2115   1.946       .  S
Zn2112     O2117   2.039       .  S
Zn2112     O2119   2.023       .  S
Zn2112     O2123   2.003       .  S
Zn2113     O2115   1.939       .  S
Zn2113     O2118   2.051       .  S
Zn2113     O2121   2.006       .  S
Zn2114     O2115   1.943       .  S
Zn2114     O2125   2.020       .  S
Zn2114     O2126   2.025       .  S
O2116      C2128   1.271       .  A
O2117      C2129   1.276       .  A
O2118      C2130   1.279       .  A
O2119      C2128   1.275       .  A
O2120      C2130   1.270       .  A
O2121      C2129   1.272       .  A
O2122      C2131   1.276       .  A
O2123      C2132   1.272       .  A
O2124      C2131   1.277       .  A
O2125      C2132   1.275       .  A
O2126      C2133   1.273       .  A
O2127      C2133   1.271       .  A
C2128      C2737   1.469       .  S
C2129      C2777   1.483       .  S
C2130      C2744   1.489       .  S
C2131      C2727   1.483       .  S
C2132      C2714   1.481       .  S
C2133      C3247   1.475       .  S
Zn2134     O2138   1.934       .  S
Zn2134     O2139   2.002       .  S
Zn2134     O2143   1.986       .  S
Zn2134     O2150   2.005       .  S
Zn2135     O2138   1.938       .  S
Zn2135     O2140   2.001       .  S
Zn2135     O2142   2.012       .  S
Zn2135     O2146   2.007       .  S
Zn2136     O2138   1.964       .  S
Zn2136     O2141   2.043       .  S
Zn2136     O2144   2.037       .  S
Zn2136     O2147   2.040       .  S
Zn2137     O2138   1.950       .  S
Zn2137     O2145   1.990       .  S
Zn2137     O2148   2.032       .  S
Zn2137     O2149   2.044       .  S
O2139      C2151   1.272       .  A
O2140      C2152   1.272       .  A
O2141      C2153   1.277       .  A
O2142      C2151   1.272       .  A
O2143      C2153   1.270       .  A
O2144      C2152   1.276       .  A
O2145      C2154   1.271       .  A
O2146      C2155   1.272       .  A
O2147      C2154   1.277       .  A
O2148      C2155   1.276       .  A
O2149      C2156   1.276       .  A
O2150      C2156   1.271       .  A
C2151      C2694   1.477       .  S
C2152      C3217   1.481       .  S
C2153      C2734   1.471       .  S
C2154      C2704   1.483       .  S
C2155      C2724   1.473       .  S
C2156      C2827   1.477       .  S
Zn2157     O2161   1.934       .  S
Zn2157     O2162   1.994       .  S
Zn2157     O2166   2.019       .  S
Zn2157     O2173   2.027       .  S
Zn2158     O2161   1.952       .  S
Zn2158     O2163   2.043       .  S
Zn2158     O2165   2.038       .  S
Zn2158     O2169   2.036       .  S
Zn2159     O2161   1.955       .  S
Zn2159     O2164   2.061       .  S
Zn2159     O2167   2.005       .  S
Zn2159     O2170   2.029       .  S
Zn2160     O2161   1.942       .  S
Zn2160     O2168   2.015       .  S
Zn2160     O2171   2.049       .  S
Zn2160     O2172   2.034       .  S
O2162      C2174   1.272       .  A
O2163      C2175   1.277       .  A
O2164      C2176   1.279       .  A
O2165      C2174   1.278       .  A
O2166      C2176   1.273       .  A
O2167      C2175   1.271       .  A
O2168      C2177   1.276       .  A
O2169      C2178   1.275       .  A
O2170      C2177   1.278       .  A
O2171      C2178   1.278       .  A
O2172      C2179   1.276       .  A
O2173      C2179   1.275       .  A
C2174      C2674   1.483       .  S
C2175      C2747   1.487       .  S
C2176      C2687   1.496       .  S
C2178      C3337   1.490       .  S
C2179      C2654   1.487       .  S
Zn2180     O2184   1.935       .  S
Zn2180     O2185   2.007       .  S
Zn2180     O2189   2.002       .  S
Zn2180     O2196   2.014       .  S
Zn2181     O2184   1.944       .  S
Zn2181     O2186   1.985       .  S
Zn2181     O2188   2.013       .  S
Zn2181     O2192   2.031       .  S
Zn2182     O2184   1.957       .  S
Zn2182     O2187   2.053       .  S
Zn2182     O2190   2.049       .  S
Zn2182     O2193   2.052       .  S
Zn2183     O2184   1.927       .  S
Zn2183     O2191   1.988       .  S
Zn2183     O2194   1.989       .  S
Zn2183     O2195   1.995       .  S
O2185      C2197   1.273       .  A
O2186      C2198   1.270       .  A
O2187      C2199   1.279       .  A
O2188      C2197   1.274       .  A
O2189      C2199   1.273       .  A
O2190      C2198   1.278       .  A
O2191      C2200   1.271       .  A
O2192      C2201   1.275       .  A
O2193      C2200   1.279       .  A
O2194      C2201   1.269       .  A
O2195      C2202   1.271       .  A
O2196      C2202   1.273       .  A
C2197      C2677   1.474       .  S
C2198      C2707   1.487       .  S
C2199      C3297   1.483       .  S
C2200      C2667   1.485       .  S
C2201      C2644   1.473       .  S
C2202      C2634   1.474       .  S
Zn2203     O2207   1.936       .  S
Zn2203     O2208   2.009       .  S
Zn2203     O2212   1.993       .  S
Zn2203     O2219   1.978       .  S
Zn2204     O2207   1.941       .  S
Zn2204     O2209   1.989       .  S
Zn2204     O2211   2.023       .  S
Zn2204     O2215   2.001       .  S
Zn2205     O2207   1.967       .  S
Zn2205     O2210   2.056       .  S
Zn2205     O2213   2.033       .  S
Zn2205     O2216   2.060       .  S
Zn2206     O2207   1.956       .  S
Zn2206     O2214   2.013       .  S
Zn2206     O2217   2.034       .  S
Zn2206     O2218   2.043       .  S
O2208      C2220   1.271       .  A
O2209      C2221   1.271       .  A
O2210      C2222   1.280       .  A
O2211      C2220   1.272       .  A
O2212      C2222   1.271       .  A
O2213      C2221   1.275       .  A
O2214      C2223   1.272       .  A
O2215      C2224   1.272       .  A
O2216      C2223   1.279       .  A
O2217      C2224   1.277       .  A
O2218      C2225   1.277       .  A
O2219      C2225   1.269       .  A
C2220      C3107   1.474       .  S
C2221      C2604   1.476       .  S
C2222      C2614   1.486       .  S
C2223      C2684   1.492       .  S
C2224      C2624   1.471       .  S
C2225      C2814   1.480       .  S
Zn2226     O2230   1.960       .  S
Zn2226     O2231   2.063       .  S
Zn2226     O2235   2.034       .  S
Zn2226     O2242   2.045       .  S
Zn2227     O2230   1.928       .  S
Zn2227     O2232   1.997       .  S
Zn2227     O2234   1.984       .  S
Zn2227     O2238   1.978       .  S
Zn2228     O2230   1.942       .  S
Zn2228     O2233   2.007       .  S
Zn2228     O2236   2.021       .  S
Zn2228     O2239   2.012       .  S
Zn2229     O2230   1.961       .  S
Zn2229     O2237   2.027       .  S
Zn2229     O2240   2.055       .  S
Zn2229     O2241   2.021       .  S
O2231      C2243   1.280       .  A
O2232      C2244   1.271       .  A
O2233      C2245   1.272       .  A
O2234      C2243   1.269       .  A
O2235      C2245   1.275       .  A
O2236      C2244   1.273       .  A
O2237      C2246   1.275       .  A
O2238      C2247   1.268       .  A
O2239      C2246   1.274       .  A
O2240      C2247   1.278       .  A
O2241      C2248   1.274       .  A
O2242      C2248   1.278       .  A
C2243      C2617   1.475       .  S
C2244      C2594   1.481       .  S
C2245      C3084   1.493       .  S
C2247      C2647   1.487       .  S
C2248      C2767   1.490       .  S
Zn2249     O2253   1.953       .  S
Zn2249     O2254   2.025       .  S
Zn2249     O2258   2.028       .  S
Zn2249     O2265   2.012       .  S
Zn2250     O2253   1.938       .  S
Zn2250     O2257   2.009       .  S
Zn2250     O2261   2.016       .  S
Zn2251     O2253   1.961       .  S
Zn2251     O2256   2.041       .  S
Zn2251     O2262   2.057       .  S
Zn2252     O2253   1.956       .  S
Zn2252     O2260   2.011       .  S
Zn2252     O2263   2.061       .  S
Zn2252     O2264   2.028       .  S
O2254      C2266   1.273       .  A
O2255      C2267   1.271       .  A
O2256      C2268   1.275       .  A
O2257      C2266   1.274       .  A
O2258      C2268   1.275       .  A
O2259      C2267   1.277       .  A
O2260      C2269   1.272       .  A
O2261      C2270   1.271       .  A
O2262      C2269   1.279       .  A
O2263      C2270   1.279       .  A
O2264      C2271   1.278       .  A
O2265      C2271   1.275       .  A
C2266      C2717   1.479       .  S
C2267      C2557   1.469       .  S
C2268      C3024   1.486       .  S
C2269      C2574   1.483       .  S
C2270      C2587   1.489       .  S
C2271      C2564   1.483       .  S
Zn2272     O2276   1.924       .  S
Zn2272     O2277   2.010       .  S
Zn2272     O2281   1.978       .  S
Zn2272     O2288   2.000       .  S
Zn2273     O2276   1.946       .  S
Zn2273     O2278   2.014       .  S
Zn2273     O2280   2.052       .  S
Zn2273     O2284   2.036       .  S
Zn2274     O2276   1.955       .  S
Zn2274     O2279   2.060       .  S
Zn2274     O2282   2.059       .  S
Zn2274     O2285   2.057       .  S
Zn2275     O2276   1.926       .  S
Zn2275     O2283   1.991       .  S
Zn2275     O2286   1.991       .  S
Zn2275     O2287   2.014       .  S
O2277      C2289   1.271       .  A
O2278      C2290   1.274       .  A
O2279      C2291   1.280       .  A
O2280      C2289   1.277       .  A
O2281      C2291   1.270       .  A
O2282      C2290   1.280       .  A
O2283      C2292   1.271       .  A
O2284      C2293   1.278       .  A
O2285      C2292   1.279       .  A
O2286      C2293   1.269       .  A
O2287      C2294   1.272       .  A
O2288      C2294   1.271       .  A
C2289      C2544   1.480       .  S
C2290      C2534   1.484       .  S
C2291      C2567   1.486       .  S
C2292      C2997   1.483       .  S
C2293      C2554   1.490       .  S
C2294      C2697   1.478       .  S
Zn2295     O2299   1.937       .  S
Zn2295     O2300   1.982       .  S
Zn2295     O2304   2.020       .  S
Zn2295     O2311   2.000       .  S
Zn2296     O2299   1.965       .  S
Zn2296     O2301   2.042       .  S
Zn2296     O2303   2.055       .  S
Zn2296     O2307   2.058       .  S
Zn2297     O2299   1.936       .  S
Zn2297     O2302   2.026       .  S
Zn2297     O2305   1.999       .  S
Zn2297     O2308   1.979       .  S
Zn2298     O2299   1.964       .  S
Zn2298     O2306   2.051       .  S
Zn2298     O2309   2.011       .  S
Zn2298     O2310   2.059       .  S
O2300      C2312   1.271       .  A
O2301      C2313   1.275       .  A
O2302      C2314   1.274       .  A
O2303      C2312   1.280       .  A
O2304      C2314   1.273       .  A
O2305      C2313   1.270       .  A
O2306      C2315   1.278       .  A
O2307      C2316   1.280       .  A
O2308      C2315   1.270       .  A
O2309      C2316   1.273       .  A
O2310      C2317   1.279       .  A
O2311      C2317   1.270       .  A
C2312      C2514   1.483       .  S
C2313      C2787   1.494       .  S
C2314      C2847   1.474       .  S
C2315      C2504   1.485       .  S
C2316      C2547   1.482       .  S
C2317      C2524   1.484       .  S
Zn2318     O2322   1.931       .  S
Zn2318     O2323   1.993       .  S
Zn2318     O2327   1.975       .  S
Zn2318     O2334   2.010       .  S
Zn2319     O2322   1.957       .  S
Zn2319     O2324   2.013       .  S
Zn2319     O2326   2.056       .  S
Zn2320     O2322   1.964       .  S
Zn2320     O2325   2.057       .  S
Zn2320     O2328   2.041       .  S
Zn2320     O2331   2.022       .  S
Zn2321     O2322   1.941       .  S
Zn2321     O2329   2.023       .  S
Zn2321     O2333   2.044       .  S
O2323      C2335   1.270       .  A
O2324      C2336   1.272       .  A
O2325      C2337   1.279       .  A
O2326      C2335   1.279       .  A
O2327      C2337   1.270       .  A
O2328      C2336   1.277       .  A
O2329      C2338   1.275       .  A
O2330      C2339   1.276       .  A
O2331      C2338   1.274       .  A
O2332      C2339   1.275       .  A
O2333      C2340   1.276       .  A
O2334      C2340   1.270       .  A
C2335      C2494   1.489       .  S
C2336      C2584   1.483       .  S
C2337      C2507   1.482       .  S
C2338      C2757   1.485       .  S
C2339      C2517   1.484       .  S
C2340      C2837   1.501       .  S
Zn2341     O2345   1.938       .  S
Zn2341     O2346   1.991       .  S
Zn2341     O2350   1.996       .  S
Zn2341     O2357   2.006       .  S
Zn2342     O2345   1.956       .  S
Zn2342     O2347   1.990       .  S
Zn2342     O2349   2.052       .  S
Zn2342     O2353   2.023       .  S
Zn2343     O2345   1.964       .  S
Zn2343     O2348   2.041       .  S
Zn2343     O2351   2.058       .  S
Zn2343     O2354   2.036       .  S
Zn2344     O2345   1.954       .  S
Zn2344     O2352   2.028       .  S
Zn2344     O2355   2.013       .  S
Zn2344     O2356   2.020       .  S
O2346      C2358   1.269       .  A
O2347      C2359   1.270       .  A
O2348      C2360   1.278       .  A
O2349      C2358   1.277       .  A
O2350      C2360   1.272       .  A
O2351      C2359   1.278       .  A
O2352      C2361   1.275       .  A
O2353      C2362   1.276       .  A
O2354      C2361   1.276       .  A
O2355      C2362   1.274       .  A
O2356      C2363   1.273       .  A
O2357      C2363   1.272       .  A
C2358      C2484   1.480       .  S
C2359      C2527   1.480       .  S
C2360      C2477   1.470       .  S
C2361      C2897   1.489       .  S
C2362      C2464   1.490       .  S
C2363      C2607   1.484       .  S
Zn2364     O2368   1.939       .  S
Zn2364     O2369   2.001       .  S
Zn2364     O2373   2.019       .  S
Zn2364     O2380   2.006       .  S
Zn2365     O2368   1.962       .  S
Zn2365     O2370   2.024       .  S
Zn2365     O2372   2.046       .  S
Zn2365     O2376   2.046       .  S
Zn2366     O2368   1.939       .  S
Zn2366     O2371   2.014       .  S
Zn2366     O2374   2.001       .  S
Zn2366     O2377   2.002       .  S
Zn2367     O2368   1.949       .  S
Zn2367     O2375   2.035       .  S
Zn2367     O2378   1.996       .  S
Zn2367     O2379   2.046       .  S
O2369      C2381   1.273       .  A
O2370      C2382   1.274       .  A
O2371      C2383   1.272       .  A
O2372      C2381   1.279       .  A
O2373      C2383   1.274       .  A
O2374      C2382   1.272       .  A
O2375      C2384   1.277       .  A
O2376      C2385   1.277       .  A
O2377      C2384   1.272       .  A
O2378      C2385   1.270       .  A
O2379      C2386   1.278       .  A
O2380      C2386   1.272       .  A
C2382      C2597   1.481       .  S
C2383      C2874   1.480       .  S
C2384      C2467   1.474       .  S
C2385      C2457   1.484       .  S
C2386      C2497   1.493       .  S
Zn2387     O2391   1.948       .  S
Zn2387     O2392   2.019       .  S
Zn2387     O2396   1.993       .  S
Zn2387     O2403   2.038       .  S
Zn2388     O2391   1.946       .  S
Zn2388     O2393   2.017       .  S
Zn2388     O2395   2.014       .  S
Zn2388     O2399   2.026       .  S
Zn2389     O2391   1.961       .  S
Zn2389     O2394   2.057       .  S
Zn2389     O2397   2.050       .  S
Zn2389     O2400   2.054       .  S
Zn2390     O2391   1.936       .  S
Zn2390     O2398   1.996       .  S
Zn2390     O2401   2.002       .  S
Zn2390     O2402   2.006       .  S
O2392      C2404   1.275       .  A
O2393      C2405   1.274       .  A
O2394      C2406   1.280       .  A
O2395      C2404   1.274       .  A
O2396      C2406   1.270       .  A
O2397      C2405   1.276       .  A
O2398      C2407   1.272       .  A
O2399      C2408   1.274       .  A
O2400      C2407   1.280       .  A
O2401      C2408   1.273       .  A
O2402      C2409   1.270       .  A
O2403      C2409   1.275       .  A
C2404      C2444   1.474       .  S
C2405      C2657   1.496       .  S
C2406      C2487   1.482       .  S
C2408      C2957   1.480       .  S
C2409      C2577   1.477       .  S
Zn2410     O2414   1.937       .  S
Zn2410     O2415   1.993       .  S
Zn2410     O2419   2.005       .  S
Zn2410     O2426   1.996       .  S
Zn2411     O2414   1.960       .  S
Zn2411     O2416   2.031       .  S
Zn2411     O2418   2.051       .  S
Zn2411     O2422   2.054       .  S
Zn2412     O2414   1.951       .  S
Zn2412     O2417   2.020       .  S
Zn2412     O2420   2.011       .  S
Zn2412     O2423   1.997       .  S
Zn2413     O2414   1.960       .  S
Zn2413     O2421   2.040       .  S
Zn2413     O2424   2.017       .  S
Zn2413     O2425   2.048       .  S
O2415      C2427   1.271       .  A
O2416      C2428   1.275       .  A
O2417      C2429   1.273       .  A
O2418      C2427   1.279       .  A
O2419      C2429   1.272       .  A
O2420      C2428   1.272       .  A
O2421      C2430   1.277       .  A
O2422      C2431   1.278       .  A
O2423      C2430   1.272       .  A
O2424      C2431   1.272       .  A
O2425      C2432   1.277       .  A
O2426      C2432   1.270       .  A
C2427      C2434   1.476       .  S
C2428      C2937   1.485       .  S
C2429      C2637   1.478       .  S
C2430      C2447   1.471       .  S
C2431      C2537   1.503       .  S
C2432      C2454   1.481       .  S
C2433      C2434   1.410       .  A
C2433      C2438   1.410       .  A
C2433     Br2440   1.930       .  S
C2434      C2435   1.410       .  A
C2435      C2436   1.406       .  A
C2435     Br2442   1.930       .  S
C2436      C2437   1.409       .  A
C2437      C2438   1.411       .  A
C2438     Br2439   1.929       .  S
C2443      C2444   1.408       .  A
C2443      C2448   1.407       .  A
C2443     Br2450   1.930       .  S
C2444      C2445   1.413       .  A
C2445      C2446   1.407       .  A
C2445     Br2452   1.931       .  S
C2446      C2447   1.406       .  A
C2446     Br2451   1.929       .  S
C2447      C2448   1.410       .  A
C2448     Br2449   1.931       .  S
C2453      C2454   1.410       .  A
C2453      C2458   1.409       .  A
C2453     Br2460   1.932       .  S
C2454      C2455   1.411       .  A
C2455      C2456   1.410       .  A
C2455     Br2462   1.932       .  S
C2456      C2457   1.414       .  A
C2456     Br2461   1.932       .  S
C2457      C2458   1.413       .  A
C2458     Br2459   1.933       .  S
C2463      C2464   1.421       .  A
C2463      C2468   1.409       .  A
C2463     Br2470   1.935       .  S
C2464      C2465   1.417       .  A
C2465      C2466   1.409       .  A
C2465     Br2472   1.933       .  S
C2466      C2467   1.408       .  A
C2466     Br2471   1.933       .  S
C2467      C2468   1.405       .  A
C2468     Br2469   1.932       .  S
C2473      C2474   1.412       .  A
C2473      C2478   1.409       .  A
C2474      C2475   1.413       .  A
C2475      C2476   1.407       .  A
C2475     Br2482   1.931       .  S
C2476      C2477   1.406       .  A
C2476     Br2481   1.931       .  S
C2477      C2478   1.408       .  A
C2478     Br2479   1.931       .  S
C2483      C2484   1.410       .  A
C2483      C2488   1.409       .  A
C2483     Br2490   1.931       .  S
C2484      C2485   1.411       .  A
C2485      C2486   1.410       .  A
C2485     Br2492   1.931       .  S
C2486      C2487   1.412       .  A
C2486     Br2491   1.930       .  S
C2487      C2488   1.411       .  A
C2488     Br2489   1.928       .  S
C2493      C2494   1.410       .  A
C2493      C2498   1.412       .  A
C2494      C2495   1.418       .  A
C2495      C2496   1.410       .  A
C2495     Br2502   1.936       .  S
C2496      C2497   1.412       .  A
C2496     Br2501   1.934       .  S
C2497      C2498   1.421       .  A
C2498     Br2499   1.935       .  S
C2503      C2504   1.416       .  A
C2503      C2508   1.413       .  A
C2503     Br2510   1.932       .  S
C2504      C2505   1.414       .  A
C2505      C2506   1.404       .  A
C2505     Br2512   1.936       .  S
C2506      C2507   1.411       .  A
C2506     Br2511   1.936       .  S
C2507      C2508   1.412       .  A
C2508     Br2509   1.930       .  S
C2513      C2514   1.411       .  A
C2513      C2518   1.411       .  A
C2513     Br2520   1.932       .  S
C2514      C2515   1.414       .  A
C2515      C2516   1.407       .  A
C2515     Br2522   1.934       .  S
C2516      C2517   1.411       .  A
C2516     Br2521   1.935       .  S
C2517      C2518   1.416       .  A
C2518     Br2519   1.933       .  S
C2523      C2524   1.416       .  A
C2523      C2528   1.412       .  A
C2523     Br2530   1.930       .  S
C2524      C2525   1.408       .  A
C2525      C2526   1.409       .  A
C2525     Br2532   1.929       .  S
C2526      C2527   1.414       .  A
C2526     Br2531   1.932       .  S
C2527      C2528   1.407       .  A
C2528     Br2529   1.930       .  S
C2533      C2534   1.410       .  A
C2533      C2538   1.414       .  A
C2533     Br2540   1.932       .  S
C2534      C2535   1.404       .  A
C2535      C2536   1.411       .  A
C2535     Br2542   1.934       .  S
C2536      C2537   1.426       .  A
C2536     Br2541   1.935       .  S
C2537      C2538   1.419       .  A
C2538     Br2539   1.933       .  S
C2543      C2544   1.411       .  A
C2543      C2548   1.412       .  A
C2543     Br2550   1.930       .  S
C2544      C2545   1.407       .  A
C2545      C2546   1.410       .  A
C2545     Br2552   1.927       .  S
C2546      C2547   1.412       .  A
C2546     Br2551   1.930       .  S
C2547      C2548   1.410       .  A
C2548     Br2549   1.929       .  S
C2553      C2554   1.420       .  A
C2553      C2558   1.408       .  A
C2553     Br2560   1.934       .  S
C2554      C2555   1.423       .  A
C2555      C2556   1.406       .  A
C2555     Br2562   1.937       .  S
C2556      C2557   1.404       .  A
C2556     Br2561   1.933       .  S
C2557      C2558   1.405       .  A
C2558     Br2559   1.933       .  S
C2563      C2564   1.408       .  A
C2563      C2568   1.406       .  A
C2563     Br2570   1.934       .  S
C2564      C2565   1.416       .  A
C2565      C2566   1.410       .  A
C2565     Br2572   1.931       .  S
C2566      C2567   1.411       .  A
C2566     Br2571   1.930       .  S
C2567      C2568   1.418       .  A
C2568     Br2569   1.936       .  S
C2573      C2574   1.412       .  A
C2573      C2578   1.409       .  A
C2573     Br2580   1.922       .  S
C2574      C2575   1.409       .  A
C2575      C2576   1.409       .  A
C2575     Br2582   1.923       .  S
C2576      C2577   1.410       .  A
C2576     Br2581   1.929       .  S
C2577      C2578   1.407       .  A
C2578     Br2579   1.930       .  S
C2583      C2584   1.410       .  A
C2583      C2588   1.411       .  A
C2583     Br2590   1.931       .  S
C2585      C2586   1.412       .  A
C2585     Br2592   1.933       .  S
C2586      C2587   1.412       .  A
C2586     Br2591   1.924       .  S
C2588     Br2589   1.927       .  S
C2593      C2594   1.413       .  A
C2593      C2598   1.410       .  A
C2593     Br2600   1.934       .  S
C2594      C2595   1.413       .  A
C2595      C2596   1.405       .  A
C2595     Br2602   1.936       .  S
C2596      C2597   1.413       .  A
C2596     Br2601   1.935       .  S
C2597      C2598   1.414       .  A
C2598     Br2599   1.934       .  S
C2603      C2604   1.409       .  A
C2603      C2608   1.410       .  A
C2603     Br2610   1.932       .  S
C2604      C2605   1.410       .  A
C2605      C2606   1.405       .  A
C2605     Br2612   1.935       .  S
C2606      C2607   1.415       .  A
C2606     Br2611   1.935       .  S
C2607      C2608   1.417       .  A
C2608     Br2609   1.933       .  S
C2613      C2614   1.414       .  A
C2613      C2618   1.410       .  A
C2613     Br2620   1.930       .  S
C2614      C2615   1.417       .  A
C2615      C2616   1.409       .  A
C2615     Br2622   1.934       .  S
C2616      C2617   1.406       .  A
C2616     Br2621   1.928       .  S
C2617      C2618   1.408       .  A
C2618     Br2619   1.932       .  S
C2623      C2624   1.411       .  A
C2623      C2628   1.408       .  A
C2623     Br2630   1.931       .  S
C2624      C2625   1.405       .  A
C2625      C2626   1.407       .  A
C2625     Br2632   1.929       .  S
C2626      C2627   1.414       .  A
C2627      C2628   1.409       .  A
C2633      C2634   1.411       .  A
C2633      C2638   1.409       .  A
C2633     Br2640   1.933       .  S
C2634      C2635   1.410       .  A
C2635      C2636   1.405       .  A
C2635     Br2642   1.935       .  S
C2636      C2637   1.412       .  A
C2636     Br2641   1.932       .  S
C2637      C2638   1.412       .  A
C2638     Br2639   1.930       .  S
C2643      C2644   1.406       .  A
C2643      C2648   1.407       .  A
C2643     Br2650   1.933       .  S
C2644      C2645   1.408       .  A
C2645      C2646   1.408       .  A
C2645     Br2652   1.931       .  S
C2646      C2647   1.414       .  A
C2646     Br2651   1.924       .  S
C2647      C2648   1.418       .  A
C2648     Br2649   1.935       .  S
C2653      C2654   1.411       .  A
C2653      C2658   1.410       .  A
C2653     Br2660   1.933       .  S
C2654      C2655   1.412       .  A
C2655      C2656   1.413       .  A
C2655     Br2662   1.932       .  S
C2656      C2657   1.417       .  A
C2656     Br2661   1.930       .  S
C2657      C2658   1.417       .  A
C2658     Br2659   1.934       .  S
C2663      C2664   1.410       .  A
C2663      C2668   1.409       .  A
C2663     Br2670   1.933       .  S
C2664      C2665   1.415       .  A
C2665      C2666   1.408       .  A
C2666      C2667   1.410       .  A
C2666     Br2671   1.931       .  S
C2667      C2668   1.417       .  A
C2668     Br2669   1.935       .  S
C2673      C2674   1.413       .  A
C2673      C2678   1.406       .  A
C2673     Br2680   1.933       .  S
C2674      C2675   1.419       .  A
C2675      C2676   1.407       .  A
C2675     Br2682   1.935       .  S
C2676      C2677   1.406       .  A
C2676     Br2681   1.932       .  S
C2677      C2678   1.411       .  A
C2678     Br2679   1.931       .  S
C2683      C2684   1.413       .  A
C2683      C2688   1.412       .  A
C2683     Br2690   1.934       .  S
C2684      C2685   1.413       .  A
C2685      C2686   1.415       .  A
C2685     Br2692   1.932       .  S
C2686      C2687   1.416       .  A
C2686     Br2691   1.932       .  S
C2687      C2688   1.415       .  A
C2688     Br2689   1.930       .  S
C2693      C2694   1.411       .  A
C2693      C2698   1.405   1_655  A
C2693     Br2700   1.930       .  S
C2694      C2695   1.412       .  A
C2695      C2696   1.408   1_655  A
C2695     Br2702   1.934       .  S
C2696      C2697   1.413       .  A
C2696     Br2701   1.933       .  S
C2697      C2698   1.411       .  A
C2698     Br2699   1.932       .  S
C2703      C2704   1.412       .  A
C2703      C2708   1.407       .  A
C2703     Br2710   1.936       .  S
C2704      C2705   1.413       .  A
C2705      C2706   1.410       .  A
C2705     Br2712   1.933       .  S
C2706      C2707   1.414       .  A
C2706     Br2711   1.933       .  S
C2707      C2708   1.416       .  A
C2708     Br2709   1.934       .  S
C2713      C2714   1.413       .  A
C2713      C2718   1.405   1_655  A
C2713     Br2720   1.932       .  S
C2714      C2715   1.414       .  A
C2715      C2716   1.409   1_655  A
C2715     Br2722   1.934       .  S
C2716      C2717   1.410       .  A
C2716     Br2721   1.926       .  S
C2717      C2718   1.408       .  A
C2718     Br2719   1.928       .  S
C2723      C2724   1.405       .  A
C2723      C2728   1.408       .  A
C2723     Br2730   1.930       .  S
C2724      C2725   1.409       .  A
C2725      C2726   1.410       .  A
C2725     Br2732   1.932       .  S
C2726      C2727   1.412       .  A
C2726     Br2731   1.930       .  S
C2727      C2728   1.416       .  A
C2728     Br2729   1.931       .  S
C2733      C2734   1.410       .  A
C2733      C2738   1.405       .  A
C2733     Br2740   1.929       .  S
C2734      C2735   1.409       .  A
C2735      C2736   1.407       .  A
C2735     Br2742   1.927       .  S
C2736      C2737   1.408       .  A
C2736     Br2741   1.931       .  S
C2737      C2738   1.408       .  A
C2738     Br2739   1.932       .  S
C2743      C2744   1.420       .  A
C2743      C2748   1.411       .  A
C2743     Br2750   1.932       .  S
C2744      C2745   1.409       .  A
C2745      C2746   1.409       .  A
C2745     Br2752   1.934       .  S
C2746      C2747   1.417       .  A
C2746     Br2751   1.931       .  S
C2747      C2748   1.409       .  A
C2748     Br2749   1.934       .  S
C2753      C2754   1.414       .  A
C2753      C2758   1.408   1_655  A
C2754      C2755   1.412       .  A
C2755      C2756   1.412   1_655  A
C2755     Br2762   1.924       .  S
C2756      C2757   1.414       .  A
C2756     Br2761   1.934       .  S
C2757      C2758   1.413       .  A
C2763      C2764   1.411       .  A
C2763      C2768   1.412       .  A
C2763     Br2770   1.931       .  S
C2764      C2765   1.409       .  A
C2765      C2766   1.410       .  A
C2765     Br2772   1.932       .  S
C2766      C2767   1.413       .  A
C2766     Br2771   1.924       .  S
C2767      C2768   1.416       .  A
C2768     Br2769   1.932       .  S
C2773      C2774   1.419   1_554  A
C2773     Br2780   1.935       .  S
C2774      C2775   1.419       .  A
C2775     Br2782   1.935       .  S
C2776      C2777   1.410       .  A
C2776     Br2781   1.932       .  S
C2777      C2778   1.407       .  A
C2778     Br2779   1.935       .  S
C2783      C2784   1.414       .  A
C2783      C2788   1.410   1_655  A
C2783     Br2790   1.925       .  S
C2784      C2785   1.419       .  A
C2785      C2786   1.413   1_655  A
C2785     Br2792   1.934       .  S
C2786      C2787   1.415       .  A
C2786     Br2791   1.935       .  S
C2787      C2788   1.417       .  A
C2788     Br2789   1.939       .  S
C2793      C2794   1.414       .  A
C2793      C2798   1.406       .  A
C2793     Br2800   1.934       .  S
C2794      C2795   1.410       .  A
C2795      C2796   1.408       .  A
C2795     Br2802   1.932       .  S
C2796      C2797   1.416       .  A
C2796     Br2801   1.935       .  S
C2797      C2798   1.410       .  A
C2798     Br2799   1.928       .  S
C2803      C2804   1.414       .  A
C2803      C2808   1.408       .  A
C2803     Br2810   1.933       .  S
C2804      C2805   1.415       .  A
C2805      C2806   1.407       .  A
C2805     Br2812   1.935       .  S
C2806      C2807   1.411       .  A
C2806     Br2811   1.932       .  S
C2807      C2808   1.411       .  A
C2808     Br2809   1.934       .  S
C2813      C2814   1.409       .  A
C2813      C2818   1.409       .  A
C2813     Br2820   1.931       .  S
C2814      C2815   1.418       .  A
C2815      C2816   1.405       .  A
C2815     Br2822   1.934       .  S
C2816      C2817   1.406       .  A
C2816     Br2821   1.934       .  S
C2817      C2818   1.416       .  A
C2818     Br2819   1.934       .  S
C2823      C2824   1.410       .  A
C2823      C2828   1.410       .  A
C2823     Br2830   1.930       .  S
C2824      C2825   1.411       .  A
C2825      C2826   1.408       .  A
C2825     Br2832   1.927       .  S
C2826      C2827   1.407       .  A
C2826     Br2831   1.926       .  S
C2827      C2828   1.410       .  A
C2828     Br2829   1.927       .  S
C2833      C2834   1.405       .  A
C2833      C2838   1.411       .  A
C2833     Br2840   1.934       .  S
C2834      C2835   1.407       .  A
C2835      C2836   1.411       .  A
C2836      C2837   1.421       .  A
C2837      C2838   1.425       .  A
C2838     Br2839   1.936       .  S
C2843      C2844   1.408       .  A
C2843      C2848   1.407       .  A
C2843     Br2850   1.929       .  S
C2844      C2845   1.410       .  A
C2845      C2846   1.410       .  A
C2845     Br2852   1.928       .  S
C2846      C2847   1.409       .  A
C2846     Br2851   1.929       .  S
C2847      C2848   1.408       .  A
C2848     Br2849   1.928       .  S
C2853      C2854   1.411       .  A
C2853      C2858   1.409       .  A
C2853     Br2860   1.932       .  S
C2854      C2855   1.404       .  A
C2855      C2856   1.407       .  A
C2855     Br2862   1.929       .  S
C2856      C2857   1.415       .  A
C2856     Br2861   1.932       .  S
C2857      C2858   1.410       .  A
C2858     Br2859   1.930       .  S
C2863      C2864   1.406       .  A
C2863      C2868   1.409       .  A
C2863     Br2870   1.931       .  S
C2864      C2865   1.409       .  A
C2865      C2866   1.411       .  A
C2865     Br2872   1.931       .  S
C2866      C2867   1.413       .  A
C2866     Br2871   1.930       .  S
C2867      C2868   1.416       .  A
C2868     Br2869   1.932       .  S
C2873      C2874   1.411       .  A
C2873      C2878   1.408       .  A
C2873     Br2880   1.933       .  S
C2874      C2875   1.412       .  A
C2875      C2876   1.409       .  A
C2875     Br2882   1.933       .  S
C2876      C2877   1.413       .  A
C2876     Br2881   1.933       .  S
C2877      C2878   1.413       .  A
C2878     Br2879   1.933       .  S
C2883      C2884   1.416       .  A
C2883      C2888   1.411       .  A
C2883     Br2890   1.933       .  S
C2884      C2885   1.408       .  A
C2885      C2886   1.410       .  A
C2885     Br2892   1.933       .  S
C2886      C2887   1.416       .  A
C2886     Br2891   1.926       .  S
C2887      C2888   1.409       .  A
C2893      C2894   1.419       .  A
C2893      C2898   1.414       .  A
C2893     Br2900   1.934       .  S
C2894      C2895   1.418       .  A
C2895      C2896   1.411       .  A
C2895     Br2902   1.934       .  S
C2896      C2897   1.411       .  A
C2896     Br2901   1.933       .  S
C2897      C2898   1.412       .  A
C2898     Br2899   1.934       .  S
C2903      C2904   1.405       .  A
C2903      C2908   1.408       .  A
C2903     Br2910   1.934       .  S
C2904      C2905   1.410       .  A
C2905      C2906   1.407       .  A
C2905     Br2912   1.931       .  S
C2906      C2907   1.415       .  A
C2906     Br2911   1.934       .  S
C2907      C2908   1.422       .  A
C2908     Br2909   1.935       .  S
C2913      C2914   1.415       .  A
C2913      C2918   1.405       .  A
C2914      C2915   1.411       .  A
C2915      C2916   1.407       .  A
C2916      C2917   1.413       .  A
C2916     Br2921   1.933       .  S
C2917      C2918   1.409       .  A
C2918     Br2919   1.934       .  S
C2923      C2924   1.404       .  A
C2923      C2928   1.410       .  A
C2923     Br2930   1.932       .  S
C2924      C2925   1.410       .  A
C2925      C2926   1.412       .  A
C2925     Br2932   1.932       .  S
C2926      C2927   1.419       .  A
C2926     Br2931   1.932       .  S
C2927      C2928   1.426       .  A
C2928     Br2929   1.938       .  S
C2933      C2934   1.412       .  A
C2933      C2938   1.409       .  A
C2933     Br2940   1.932       .  S
C2934      C2935   1.412       .  A
C2935      C2936   1.410       .  A
C2935     Br2942   1.933       .  S
C2936      C2937   1.414       .  A
C2936     Br2941   1.934       .  S
C2937      C2938   1.413       .  A
C2938     Br2939   1.933       .  S
C2943      C2944   1.413       .  A
C2943      C2948   1.408   1_565  A
C2943     Br2950   1.935       .  S
C2944      C2945   1.415       .  A
C2945      C2946   1.413   1_565  A
C2945     Br2952   1.933       .  S
C2946      C2947   1.416       .  A
C2946     Br2951   1.933       .  S
C2947      C2948   1.415       .  A
C2948     Br2949   1.935       .  S
C2953      C2954   1.415       .  A
C2953      C2958   1.405       .  A
C2953     Br2960   1.930       .  S
C2954      C2955   1.414       .  A
C2955      C2956   1.411       .  A
C2955     Br2962   1.929       .  S
C2956      C2957   1.412       .  A
C2956     Br2961   1.932       .  S
C2957      C2958   1.410       .  A
C2958     Br2959   1.936       .  S
C2963      C2964   1.409       .  A
C2963      C2968   1.409       .  A
C2963     Br2970   1.929       .  S
C2964      C2965   1.416       .  A
C2965      C2966   1.409       .  A
C2966      C2967   1.405       .  A
C2966     Br2971   1.930       .  S
C2967      C2968   1.411       .  A
C2968     Br2969   1.931       .  S
C2973      C2974   1.410       .  A
C2973      C2978   1.410       .  A
C2973     Br2980   1.930       .  S
C2974      C2975   1.410       .  A
C2975      C2976   1.408       .  A
C2975     Br2982   1.928       .  S
C2976      C2977   1.409       .  A
C2976     Br2981   1.931       .  S
C2977      C2978   1.410       .  A
C2978     Br2979   1.929       .  S
C2983      C2984   1.412       .  A
C2983      C2988   1.411   1_565  A
C2983     Br2990   1.929       .  S
C2984      C2985   1.413       .  A
C2985      C2986   1.411   1_565  A
C2985     Br2992   1.932       .  S
C2986      C2987   1.412       .  A
C2986     Br2991   1.931       .  S
C2987      C2988   1.413       .  A
C2988     Br2989   1.931       .  S
C2993      C2994   1.417       .  A
C2993      C2998   1.412       .  A
C2993     Br3000   1.931       .  S
C2994      C2995   1.416       .  A
C2995      C2996   1.407       .  A
C2995     Br3002   1.934       .  S
C2996      C2997   1.411       .  A
C2996     Br3001   1.935       .  S
C2997      C2998   1.410       .  A
C2998     Br2999   1.928       .  S
C3003      C3004   1.413       .  A
C3003      C3008   1.416   1_565  A
C3003     Br3010   1.931       .  S
C3004      C3005   1.410       .  A
C3005      C3006   1.409   1_565  A
C3005     Br3012   1.935       .  S
C3006      C3007   1.419       .  A
C3006     Br3011   1.935       .  S
C3007      C3008   1.418       .  A
C3008     Br3009   1.932       .  S
C3013      C3014   1.408       .  A
C3013      C3018   1.411       .  A
C3013     Br3020   1.933       .  S
C3014      C3015   1.416       .  A
C3015      C3016   1.409       .  A
C3015     Br3022   1.933       .  S
C3016      C3017   1.411       .  A
C3016     Br3021   1.933       .  S
C3017      C3018   1.420       .  A
C3018     Br3019   1.932       .  S
C3023      C3024   1.411       .  A
C3023      C3028   1.411       .  A
C3023     Br3030   1.926       .  S
C3024      C3025   1.411       .  A
C3025      C3026   1.410       .  A
C3025     Br3032   1.924       .  S
C3026      C3027   1.411       .  A
C3026     Br3031   1.932       .  S
C3027      C3028   1.411       .  A
C3028     Br3029   1.930       .  S
C3033      C3034   1.410       .  A
C3033      C3038   1.412       .  A
C3033     Br3040   1.929       .  S
C3034      C3035   1.407       .  A
C3035      C3036   1.406       .  A
C3035     Br3042   1.924       .  S
C3036      C3037   1.410       .  A
C3036     Br3041   1.931       .  S
C3037      C3038   1.412       .  A
C3038     Br3039   1.929       .  S
C3043      C3044   1.408       .  A
C3043      C3048   1.408       .  A
C3043     Br3050   1.932       .  S
C3044      C3045   1.405       .  A
C3045      C3046   1.407       .  A
C3045     Br3052   1.929       .  S
C3046      C3047   1.415       .  A
C3046     Br3051   1.932       .  S
C3047      C3048   1.412       .  A
C3048     Br3049   1.931       .  S
C3053      C3054   1.410       .  A
C3053     Br3060   1.930       .  S
C3054      C3055   1.403       .  A
C3055     Br3062   1.924       .  S
C3056      C3057   1.417   1_554  A
C3056     Br3061   1.930       .  S
C3057      C3058   1.417       .  A
C3058     Br3059   1.932       .  S
C3063      C3064   1.420       .  A
C3063      C3068   1.412       .  A
C3063     Br3070   1.930       .  S
C3064      C3065   1.409       .  A
C3065      C3066   1.413       .  A
C3065     Br3072   1.933       .  S
C3066      C3067   1.419       .  A
C3066     Br3071   1.931       .  S
C3067      C3068   1.408       .  A
C3068     Br3069   1.933       .  S
C3073      C3074   1.412       .  A
C3073      C3078   1.406       .  A
C3073     Br3080   1.931       .  S
C3074      C3075   1.411       .  A
C3075      C3076   1.410       .  A
C3075     Br3082   1.929       .  S
C3076      C3077   1.412       .  A
C3076     Br3081   1.932       .  S
C3077      C3078   1.409       .  A
C3078     Br3079   1.930       .  S
C3083      C3084   1.420       .  A
C3083      C3088   1.408       .  A
C3083     Br3090   1.936       .  S
C3084      C3085   1.420       .  A
C3085      C3086   1.410       .  A
C3085     Br3092   1.930       .  S
C3086      C3087   1.407       .  A
C3086     Br3091   1.933       .  S
C3087      C3088   1.408       .  A
C3088     Br3089   1.935       .  S
C3093      C3094   1.413       .  A
C3093      C3098   1.415       .  A
C3093     Br3100   1.929       .  S
C3094      C3095   1.412       .  A
C3095      C3096   1.406       .  A
C3095     Br3102   1.920       .  S
C3096      C3097   1.408       .  A
C3096     Br3101   1.935       .  S
C3097      C3098   1.412       .  A
C3098     Br3099   1.928       .  S
C3103      C3104   1.409       .  A
C3103      C3108   1.407       .  A
C3103     Br3110   1.930       .  S
C3104      C3105   1.409       .  A
C3105      C3106   1.409       .  A
C3105     Br3112   1.930       .  S
C3106      C3107   1.410       .  A
C3106     Br3111   1.930       .  S
C3107      C3108   1.409       .  A
C3108     Br3109   1.930       .  S
C3113      C3114   1.415       .  A
C3113      C3118   1.408       .  A
C3113     Br3120   1.932       .  S
C3114      C3115   1.422       .  A
C3115      C3116   1.408       .  A
C3115     Br3122   1.935       .  S
C3116      C3117   1.404       .  A
C3116     Br3121   1.932       .  S
C3117      C3118   1.410       .  A
C3118     Br3119   1.931       .  S
C3123      C3124   1.406       .  A
C3123      C3128   1.404       .  A
C3123     Br3130   1.931       .  S
C3124      C3125   1.417       .  A
C3125      C3126   1.410       .  A
C3126      C3127   1.410       .  A
C3126     Br3131   1.932       .  S
C3127      C3128   1.413       .  A
C3128     Br3129   1.920       .  S
C3133      C3134   1.414       .  A
C3133      C3138   1.409   1_655  A
C3133     Br3140   1.934       .  S
C3134      C3135   1.418       .  A
C3135      C3136   1.409   1_655  A
C3135     Br3142   1.936       .  S
C3136      C3137   1.410       .  A
C3136     Br3141   1.930       .  S
C3137      C3138   1.410       .  A
C3138     Br3139   1.928       .  S
C3143      C3144   1.411       .  A
C3143      C3148   1.406       .  A
C3143     Br3150   1.931       .  S
C3144      C3145   1.410       .  A
C3145      C3146   1.408       .  A
C3145     Br3152   1.931   1_556  S
C3146      C3147   1.410       .  A
C3146     Br3151   1.929   1_556  S
C3147      C3148   1.410       .  A
C3148     Br3149   1.932       .  S
C3153      C3154   1.412       .  A
C3153      C3158   1.410       .  A
C3153     Br3160   1.933       .  S
C3154      C3155   1.412       .  A
C3155      C3156   1.408       .  A
C3155     Br3162   1.933       .  S
C3156      C3157   1.414       .  A
C3156     Br3161   1.934       .  S
C3157      C3158   1.412       .  A
C3158     Br3159   1.926       .  S
C3163      C3164   1.415       .  A
C3163      C3168   1.407   1_455  A
C3163     Br3170   1.935       .  S
C3164      C3165   1.413       .  A
C3165      C3166   1.411   1_455  A
C3165     Br3172   1.933       .  S
C3166      C3167   1.412       .  A
C3166     Br3171   1.931       .  S
C3167      C3168   1.412       .  A
C3168     Br3169   1.935       .  S
C3173      C3174   1.411       .  A
C3173      C3178   1.406       .  A
C3173     Br3180   1.936       .  S
C3174      C3175   1.412       .  A
C3175      C3176   1.411       .  A
C3175     Br3182   1.926       .  S
C3176      C3177   1.414       .  A
C3176     Br3181   1.934       .  S
C3177      C3178   1.411       .  A
C3178     Br3179   1.920       .  S
C3183      C3184   1.410       .  A
C3183      C3188   1.410       .  A
C3183     Br3190   1.930       .  S
C3184      C3185   1.410       .  A
C3185      C3186   1.406       .  A
C3185     Br3192   1.931       .  S
C3186      C3187   1.409       .  A
C3186     Br3191   1.931       .  S
C3187      C3188   1.410       .  A
C3188     Br3189   1.927       .  S
C3193      C3194   1.407       .  A
C3193      C3198   1.408       .  A
C3193     Br3200   1.929       .  S
C3194      C3195   1.411       .  A
C3195      C3196   1.408       .  A
C3195     Br3202   1.930       .  S
C3196      C3197   1.407       .  A
C3196     Br3201   1.929       .  S
C3197      C3198   1.412       .  A
C3198     Br3199   1.932       .  S
C3203      C3204   1.412       .  A
C3203      C3208   1.410       .  A
C3203     Br3210   1.925       .  S
C3204      C3205   1.411       .  A
C3205      C3206   1.410       .  A
C3205     Br3212   1.930       .  S
C3206      C3207   1.411       .  A
C3206     Br3211   1.926       .  S
C3207      C3208   1.411       .  A
C3208     Br3209   1.930       .  S
C3213      C3214   1.416       .  A
C3213      C3218   1.411       .  A
C3213     Br3220   1.933       .  S
C3214      C3215   1.417       .  A
C3215      C3216   1.407       .  A
C3215     Br3222   1.936       .  S
C3216      C3217   1.410       .  A
C3216     Br3221   1.935       .  S
C3217      C3218   1.411       .  A
C3218     Br3219   1.930       .  S
C3223      C3224   1.410       .  A
C3223      C3228   1.412   1_655  A
C3223     Br3230   1.929       .  S
C3224      C3225   1.409       .  A
C3225      C3226   1.406   1_655  A
C3225     Br3232   1.920       .  S
C3226      C3227   1.408       .  A
C3226     Br3231   1.933       .  S
C3227      C3228   1.411       .  A
C3228     Br3229   1.929       .  S
C3233      C3234   1.409       .  A
C3233      C3238   1.408   1_565  A
C3233     Br3240   1.926       .  S
C3234      C3235   1.411       .  A
C3235      C3236   1.407   1_565  A
C3235     Br3242   1.926       .  S
C3236      C3237   1.407       .  A
C3236     Br3241   1.930       .  S
C3237      C3238   1.409       .  A
C3238     Br3239   1.928       .  S
C3243      C3244   1.410       .  A
C3243      C3248   1.409       .  A
C3243     Br3250   1.932       .  S
C3244      C3245   1.408       .  A
C3245      C3246   1.403       .  A
C3245     Br3252   1.934       .  S
C3246      C3247   1.412       .  A
C3246     Br3251   1.934       .  S
C3247      C3248   1.412       .  A
C3248     Br3249   1.931       .  S
C3253      C3254   1.410       .  A
C3253      C3258   1.415   1_655  A
C3253     Br3260   1.933       .  S
C3254      C3255   1.405       .  A
C3255      C3256   1.411   1_655  A
C3255     Br3262   1.935       .  S
C3256      C3257   1.423       .  A
C3256     Br3261   1.925       .  S
C3257      C3258   1.421       .  A
C3258     Br3259   1.933       .  S
C3263      C3264   1.414       .  A
C3263      C3268   1.408       .  A
C3263     Br3270   1.934       .  S
C3264      C3265   1.409       .  A
C3265      C3266   1.407       .  A
C3265     Br3272   1.934       .  S
C3266      C3267   1.417       .  A
C3266     Br3271   1.936       .  S
C3267      C3268   1.412       .  A
C3268     Br3269   1.933       .  S
C3273      C3274   1.419       .  A
C3273      C3278   1.407       .  A
C3273     Br3280   1.925       .  S
C3274      C3275   1.414       .  A
C3275      C3276   1.408       .  A
C3275     Br3282   1.933       .  S
C3276      C3277   1.412       .  A
C3276     Br3281   1.934       .  S
C3277      C3278   1.405       .  A
C3278     Br3279   1.935       .  S
C3283      C3284   1.410       .  A
C3283      C3288   1.409   1_545  A
C3283     Br3290   1.933       .  S
C3285      C3286   1.412   1_545  A
C3285     Br3292   1.934       .  S
C3286      C3287   1.405       .  A
C3286     Br3291   1.932       .  S
C3288     Br3289   1.932       .  S
C3293      C3294   1.410       .  A
C3293      C3298   1.407       .  A
C3293     Br3300   1.934       .  S
C3294      C3295   1.411       .  A
C3295      C3296   1.411       .  A
C3295     Br3302   1.930       .  S
C3296      C3297   1.411       .  A
C3296     Br3301   1.927       .  S
C3297      C3298   1.412       .  A
C3298     Br3299   1.929       .  S
C3303      C3304   1.410       .  A
C3303      C3308   1.409       .  A
C3303     Br3310   1.933       .  S
C3304      C3305   1.410       .  A
C3305      C3306   1.411       .  A
C3305     Br3312   1.930       .  S
C3306      C3307   1.418       .  A
C3306     Br3311   1.934       .  S
C3307      C3308   1.419       .  A
C3308     Br3309   1.936       .  S
C3313      C3314   1.411       .  A
C3313      C3318   1.412   1_565  A
C3313     Br3320   1.932       .  S
C3314      C3315   1.408       .  A
C3315      C3316   1.408   1_565  A
C3315     Br3322   1.929       .  S
C3316      C3317   1.414       .  A
C3316     Br3321   1.928       .  S
C3317      C3318   1.416       .  A
C3318     Br3319   1.933       .  S
C3323      C3324   1.414       .  A
C3323      C3328   1.411       .  A
C3323     Br3330   1.931       .  S
C3324      C3325   1.409       .  A
C3325      C3326   1.407       .  A
C3325     Br3332   1.925       .  S
C3326      C3327   1.409       .  A
C3326     Br3331   1.929       .  S
C3327      C3328   1.409       .  A
C3328     Br3329   1.929       .  S
C3333      C3334   1.408       .  A
C3333      C3338   1.407       .  A
C3333     Br3340   1.934       .  S
C3334      C3335   1.411       .  A
C3335      C3336   1.415       .  A
C3335     Br3342   1.929       .  S
C3336      C3337   1.414       .  A
C3336     Br3341   1.928       .  S
C3337      C3338   1.411       .  A
C3338     Br3339   1.920       .  S
C3343      C3344   1.409       .  A
C3343      C3348   1.408       .  A
C3343     Br3350   1.931       .  S
C3344      C3345   1.409       .  A
C3345      C3346   1.405       .  A
C3345     Br3352   1.927       .  S
C3346      C3347   1.407       .  A
C3346     Br3351   1.929       .  S
C3347      C3348   1.411       .  A
C3348     Br3349   1.931       .  S
C3353      C3354   1.407       .  A
C3353      C3358   1.406       .  A
C3353     Br3360   1.934       .  S
C3354      C3355   1.409       .  A
C3355      C3356   1.412       .  A
C3355     Br3362   1.932       .  S
C3356      C3357   1.418       .  A
C3357      C3358   1.419       .  A
C3358     Br3359   1.936   1_556  S
C3363      C3364   1.410       .  A
C3363      C3368   1.412       .  A
C3363     Br3370   1.931       .  S
C3364      C3365   1.410       .  A
C3365      C3366   1.406       .  A
C3365     Br3372   1.935       .  S
C3366      C3367   1.415       .  A
C3366     Br3371   1.933       .  S
C3367      C3368   1.418       .  A
C3368     Br3369   1.934       .  S
C3373      C3374   1.410       .  A
C3373      C3378   1.409   1_565  A
C3373     Br3380   1.929       .  S
C3374      C3375   1.407       .  A
C3375      C3376   1.409   1_565  A
C3375     Br3382   1.925       .  S
C3376      C3377   1.410       .  A
C3376     Br3381   1.927       .  S
C3377      C3378   1.408       .  A
C3378     Br3379   1.924       .  S
C3383      C3384   1.412       .  A
C3383      C3388   1.409       .  A
C3383     Br3390   1.932       .  S
C3384      C3385   1.410       .  A
C3385      C3386   1.408       .  A
C3386      C3387   1.412       .  A
C3386     Br3391   1.931       .  S
C3387      C3388   1.411       .  A
C3388     Br3389   1.932       .  S
