geometry optimzed in LAMMPS
_audit_creation_date              2020-12-01 
_audit_creation_method            'lammps2cif' 
_symmetry_space_group_name_H-M    'P1' 
_symmetry_Int_Tables_number       1 
_symmetry_cell_setting            triclinic 
loop_ 
_symmetry_equiv_pos_as_xyz 
  x,y,z 
_cell_length_a                    60.63240995 
_cell_length_b                    61.13497525834668 
_cell_length_c                    44.92010580097154 
_cell_angle_alpha                 90.14791425872987 
_cell_angle_beta                  89.79381820611965 
_cell_angle_gamma                 120.4813774592949 
loop_ 
_atom_site_label 
_atom_site_type_symbol 
_atom_site_fract_x 
_atom_site_fract_y 
_atom_site_fract_z 
_atom_site_charge 
Fe1        Fe  0.45000618  0.04564387  0.41806587     1.65800
Fe2        Fe  0.43955842  0.05929427  0.34843701     1.73200
Fe3        Fe  0.41823443  0.07751429  0.40957620     1.54400
O4          O  0.40029044  0.05042859  0.44344516    -0.80500
O5          O  0.45482406  0.09779957  0.34493383    -0.78800
O6          O  0.41605689  0.02459102  0.44005110    -0.83000
O7          O  0.46318493  0.07455937  0.44891303    -0.77900
O8          O  0.38655567  0.05627080  0.38333681    -0.79700
O9          O  0.47672920  0.06590080  0.35021036    -0.82400
C10         C  0.46299026  0.09504613  0.45236174     0.98300
C11         C  0.40031673  0.03032374  0.45073519     1.05800
O12         O  0.43586248  0.06080112  0.39196837    -1.11400
O13         O  0.42502200  0.02046021  0.34763287    -0.73800
O14         O  0.43896356  0.01463746  0.39101765    -0.77300
O15         O  0.44863365  0.10043059  0.43744741    -0.78000
C16         C  0.42848492  0.00668286  0.36585337     0.97300
O17         O  0.48517813  0.06520690  0.39827511    -0.76000
O18         O  0.40287137  0.05212181  0.34064103    -0.81200
C19         C  0.44906917  0.11307166  0.35686844     0.99900
C20         C  0.38413947  0.04951356  0.35620885     1.05800
O21         O  0.43359959  0.10700612  0.37866336    -0.76800
C22         C  0.49204921  0.06915039  0.37123565     1.04100
Fe23       Fe  0.06167759  0.12066879  0.64698992     1.65800
Fe24       Fe  0.04842472  0.09440200  0.57753694     1.73200
Fe25       Fe  0.08189607  0.15883099  0.58398704     1.54400
O26         O  0.06439306  0.17246359  0.61203728    -0.80500
O27         O  0.07931605  0.10781665  0.54941676    -0.78800
O28         O  0.05221657  0.14821645  0.65264830    -0.83000
O29         O  0.09977601  0.14647319  0.65220694    -0.77900
O30         O  0.05283036  0.15019478  0.55331912    -0.79700
O31         O  0.06466399  0.07755014  0.60108238    -0.82400
C32         C  0.11706121  0.16462798  0.63719690     0.98300
C33         C  0.05414551  0.16665617  0.63769884     1.05800
O34         O  0.06398962  0.12469859  0.60286766    -1.11400
O35         O  0.01557074  0.07682739  0.60234836    -0.73800
O36         O  0.02303256  0.09410176  0.64755320    -0.77300
O37         O  0.11308582  0.17132644  0.61196554    -0.78000
C38         C  0.00825465  0.07839502  0.62829147     0.97300
O39         O  0.07093725  0.09240928  0.64748865    -0.76000
O40         O  0.03039999  0.10789945  0.55111307    -0.81200
C41         C  0.09827048  0.12915330  0.54242516     0.99900
C42         C  0.03432265  0.12951584  0.54344415     1.05800
O43         O  0.10194683  0.14989931  0.55331142    -0.76800
C44         C  0.07166556  0.07797596  0.62771136     1.04100
Fe45       Fe  0.05120907  0.44910336  0.57723968     1.65800
Fe46       Fe  0.06145295  0.43570306  0.64700374     1.73200
Fe47       Fe  0.08242308  0.41680813  0.58607226     1.54400
O48         O  0.05554450  0.39949585  0.55174772    -0.80500
O49         O  0.09981899  0.45040762  0.65271181    -0.78800
O50         O  0.03011314  0.41599022  0.55423992    -0.83000
O51         O  0.08089879  0.46247979  0.54710930    -0.77900
O52         O  0.06074365  0.38469035  0.61129567    -0.79700
O53         O  0.06849807  0.47276023  0.64629575    -0.82400
C54         C  0.10146811  0.46210890  0.54411537     0.98300
C55         C  0.03555213  0.39994771  0.54409853     1.05800
O56         O  0.06500721  0.43372627  0.60349523    -1.11400
O57         O  0.02241902  0.42124365  0.64542693    -0.73800
O58         O  0.01932322  0.43830783  0.60309934    -0.77300
O59         O  0.10627799  0.44743920  0.55902946    -0.78000
C60         C  0.00976330  0.42617461  0.62702637     0.97300
O61         O  0.07128615  0.48318978  0.59841956    -0.76000
O62         O  0.05396999  0.39915550  0.65388841    -0.81200
C63         C  0.11610455  0.44595982  0.64076060     0.99900
C64         C  0.05278846  0.38136948  0.63801702     1.05800
O65         O  0.11130524  0.43191796  0.61789543    -0.76800
C66         C  0.07386997  0.48897887  0.62577331     1.04100
Fe67       Fe  0.12753502  0.05986445  0.34900112     1.65800
Fe68       Fe  0.10219667  0.04521092  0.41838657     1.73200
Fe69       Fe  0.16645240  0.07980133  0.41076606     1.54400
O70         O  0.17831556  0.05959541  0.38500274    -0.80500
O71         O  0.11722985  0.07338569  0.45023893    -0.78800
O72         O  0.15765829  0.05368358  0.34197493    -0.83000
O73         O  0.15089002  0.09826501  0.34465439    -0.77900
O74         O  0.15708921  0.05273065  0.44489172    -0.79700
O75         O  0.08656804  0.06434874  0.39881290    -0.82400
C76         C  0.17163229  0.11449394  0.35687068     0.98300
C77         C  0.17407570  0.05220558  0.35804163     1.05800
O78         O  0.13214720  0.06164761  0.39259526    -1.11400
O79         O  0.08235887  0.01451330  0.39084204    -0.73800
O80         O  0.10336758  0.02101042  0.34807540    -0.77300
O81         O  0.18048428  0.10946589  0.37987596    -0.78000
C82         C  0.08548854  0.00693899  0.36579452     0.97300
O83         O  0.09649369  0.06560953  0.35072720    -0.76000
O84         O  0.11552374  0.02471162  0.43959755    -0.81200
C85         C  0.13737658  0.09482775  0.45325852     0.99900
C86         C  0.13704075  0.03167102  0.45130075     1.05800
O87         O  0.15740743  0.10167729  0.43787076    -0.76800
C88         C  0.08410111  0.06852261  0.37175061     1.04100
Fe89       Fe  0.43995751  0.37448748  0.34824836     1.65800
Fe90       Fe  0.45143147  0.39927763  0.41760236     1.73200
Fe91       Fe  0.41834195  0.33534604  0.40964548     1.54400
O92         O  0.38934864  0.32182915  0.37802913    -0.80500
O93         O  0.47166579  0.38655793  0.44088442    -0.78800
O94         O  0.40124189  0.35173365  0.34308787    -0.83000
O95         O  0.44583403  0.34431458  0.34169404    -0.77900
O96         O  0.39543715  0.34335940  0.43663288    -0.79700
O97         O  0.48335755  0.41925566  0.39150245    -0.82400
C98         C  0.44659870  0.32761298  0.35771680     0.98300
C99         C  0.38468419  0.33116787  0.35526582     1.05800
O100        O  0.43659456  0.36958663  0.39179884    -1.11400
O101        O  0.43234933  0.41421379  0.39613361    -0.73800
O102        O  0.43456503  0.40553524  0.34844613    -0.77300
O103        O  0.43898582  0.32362423  0.38456813    -0.78000
C104        C  0.42985801  0.41716034  0.36868665     0.97300
O105        O  0.47926575  0.39815933  0.34947267    -0.76000
O106        O  0.42181323  0.38399211  0.44781127    -0.81200
C107        C  0.46555884  0.36497015  0.45129782     0.99900
C108        C  0.40094181  0.36328621  0.45117560     1.05800
O109        O  0.44520216  0.34466070  0.44381422    -0.76800
C110        C  0.49245036  0.41599359  0.36758995     1.04100
Fe111      Fe  0.37431995  0.43427616  0.64603061     1.65800
Fe112      Fe  0.40016971  0.44837226  0.57623643     1.73200
Fe113      Fe  0.33527838  0.41560054  0.58346650     1.54400
O114        O  0.32195616  0.38427835  0.61120071    -0.80500
O115        O  0.38676312  0.46664734  0.55036770    -0.78800
O116        O  0.34742183  0.39652250  0.65101645    -0.83000
O117        O  0.34718208  0.44445424  0.65253780    -0.77900
O118        O  0.34380889  0.39561016  0.55237294    -0.79700
O119        O  0.41802405  0.48063553  0.60115262    -0.82400
C120        C  0.32868701  0.44319230  0.63798609     0.98300
C121        C  0.32853529  0.37983711  0.63626945     1.05800
O122        O  0.36983865  0.43270429  0.60197027    -1.11400
O123        O  0.41742483  0.43228757  0.59899022    -0.73800
O124        O  0.40227008  0.42419563  0.64533302    -0.77300
O125        O  0.32242164  0.43329427  0.61222266    -0.78000
C126        C  0.41706148  0.42443948  0.62512966     0.97300
O127        O  0.40196852  0.47261003  0.64706836    -0.76000
O128        O  0.38625713  0.41794159  0.54795528    -0.81200
C129        C  0.36507887  0.46300944  0.54282993     0.99900
C130        C  0.36464183  0.39926174  0.54111537     1.05800
O131        O  0.34418789  0.44473791  0.55285939    -0.76800
C132        C  0.41722625  0.48758019  0.62747093     1.04100
Fe133      Fe  0.23048684  0.45559908  0.31161873     1.65800
Fe134      Fe  0.21656365  0.43064096  0.24193961     1.73200
Fe135      Fe  0.24852565  0.99262844  0.24992615     1.54400
O136        O  0.23315241  0.00665145  0.28073264    -0.80500
O137        O  0.24950426  0.44366582  0.21762382    -0.78800
O138        O  0.21727620  0.48019695  0.31794746    -0.83000
O139        O  0.26772082  0.48442620  0.31761965    -0.77900
O140        O  0.21893197  0.48693188  0.22198658    -0.79700
O141        O  0.22881478  0.41098172  0.26697589    -0.82400
C142        C  0.28360803  0.99862279  0.30249317     0.98300
C143        C  0.22034080  0.99889816  0.30478485     1.05800
O144        O  0.23218083  0.46043765  0.26785502    -1.11400
O145        O  0.18230957  0.41486879  0.26419495    -0.73800
O146        O  0.19273788  0.42583602  0.31164866    -0.77300
O147        O  0.28044211  0.00363169  0.27596574    -0.78000
C148        C  0.17651852  0.41306585  0.29157539     0.97300
O149        O  0.24370303  0.43031848  0.31047229    -0.76000
O150        O  0.20181586  0.44566315  0.21291962    -0.81200
C151        C  0.26654335  0.46531076  0.20837222     0.99900
C152        C  0.20306902  0.46669328  0.20867651     1.05800
O153        O  0.26765635  0.48580719  0.21642593    -0.76800
C154        C  0.23979529  0.41327149  0.29162909     1.04100
Fe155      Fe  0.11667361  0.37961983  0.08565382     1.65800
Fe156      Fe  0.10526303  0.39296115  0.01572171     1.73200
Fe157      Fe  0.08446962  0.41133567  0.07780563     1.54400
O158        O  0.06535562  0.38330570  0.11029752    -0.80500
O159        O  0.11734719  0.43074687  0.01039464    -0.78800
O160        O  0.08346054  0.35943040  0.10945103    -0.83000
O161        O  0.13130868  0.40924382  0.11539033    -0.77900
O162        O  0.05308985  0.39130480  0.05063848    -0.79700
O163        O  0.14332737  0.40255368  0.01699656    -0.82400
C164        C  0.12981318  0.42886228  0.12017789     0.98300
C165        C  0.06647313  0.36402308  0.11867212     1.05800
O166        O  0.10211811  0.39468383  0.05964196    -1.11400
O167        O  0.09350875  0.35468359  0.01490015    -0.73800
O168        O  0.10434361  0.34794623  0.05973914    -0.77300
O169        O  0.11409144  0.43329038  0.10687756    -0.78000
C170        C  0.09554229  0.34050249  0.03384057     0.97300
O171        O  0.15126184  0.39804792  0.06434454    -0.76000
O172        O  0.06779003  0.38303158  0.00899528    -0.81200
C173        C  0.11362141  0.44673741  0.02409707     0.99900
C174        C  0.04991115  0.38246554  0.02437386     1.05800
O175        O  0.10120498  0.44174388  0.04841438    -0.76800
C176        C  0.15838389  0.40424603  0.03761245     1.04100
Fe177      Fe  0.04261759  0.26912466  0.31470071     1.65800
Fe178      Fe  0.06668972  0.28273160  0.24489016     1.73200
Fe179      Fe  0.50291137  0.24791838  0.25397075     1.54400
O180        O  0.48921772  0.21919810  0.28591300    -0.80500
O181        O  0.05296771  0.30325064  0.22455623    -0.78800
O182        O  0.02012261  0.23056874  0.31945440    -0.83000
O183        O  0.01192882  0.27457331  0.32213297    -0.77900
O184        O  0.51189910  0.22549927  0.22756482    -0.79700
O185        O  0.08726532  0.31348815  0.27203495    -0.82400
C186        C  0.49547708  0.27592924  0.30606333     0.98300
C187        C  0.49906778  0.21430580  0.30802203     1.05800
O188        O  0.03728410  0.26659116  0.27135008    -1.11400
O189        O  0.08222492  0.26341288  0.26406047    -0.73800
O190        O  0.07410681  0.26401252  0.31242859    -0.77300
O191        O  0.49133464  0.26855349  0.27911426    -0.78000
C192        C  0.08554229  0.26001669  0.29113927     0.97300
O193        O  0.06617671  0.30821043  0.31448592    -0.76000
O194        O  0.05103208  0.25451148  0.21296127    -0.81200
C195        C  0.03134202  0.29559425  0.21277524     0.99900
C196        C  0.03129613  0.23262113  0.21100777     1.05800
O197        O  0.01172354  0.27418360  0.21910668    -0.76800
C198        C  0.08413350  0.32179151  0.29654465     1.04100
Fe199      Fe  0.10500911  0.20641841  0.01508162     1.65800
Fe200      Fe  0.11777679  0.23223741  0.08458475     1.73200
Fe201      Fe  0.08465979  0.16792489  0.07781295     1.54400
O202        O  0.05410930  0.15486969  0.04882803    -0.80500
O203        O  0.13679664  0.21911559  0.10974671    -0.78800
O204        O  0.06673770  0.18138408  0.01006488    -0.83000
O205        O  0.11336084  0.17801966  0.00893074    -0.77900
O206        O  0.06367017  0.17644091  0.10783706    -0.79700
O207        O  0.15005821  0.25061948  0.05913829    -0.82400
C208        C  0.11261127  0.16030488  0.02431109     0.98300
C209        C  0.04986143  0.16221653  0.02419071     1.05800
O210        O  0.10243399  0.20210382  0.05911973    -1.11400
O211        O  0.10053294  0.24849507  0.06189758    -0.73800
O212        O  0.09707801  0.23575664  0.01477038    -0.77300
O213        O  0.10337486  0.15504900  0.05051263    -0.78000
C214        C  0.09521076  0.24937831  0.03484173     0.97300
O215        O  0.14389406  0.23211591  0.01480786    -0.76000
O216        O  0.08756407  0.21826692  0.11374193    -0.81200
C217        C  0.13222561  0.19745362  0.11819505     0.99900
C218        C  0.06810684  0.19706678  0.11997825     1.05800
O219        O  0.11307198  0.17684033  0.10930044    -0.76800
C220        C  0.15802513  0.24858601  0.03380527     1.04100
Fe221      Fe  0.29187650  0.39289368  0.01563939     1.65800
Fe222      Fe  0.26703306  0.38022289  0.08566742     1.73200
Fe223      Fe  0.33155337  0.41234630  0.07711436     1.54400
O224        O  0.34264286  0.39199874  0.05041216    -0.80500
O225        O  0.28264097  0.40961786  0.11570210    -0.78800
O226        O  0.32037826  0.38453111  0.00842150    -0.83000
O227        O  0.31701929  0.43091453  0.01026152    -0.77900
O228        O  0.32219907  0.38473779  0.11008041    -0.79700
O229        O  0.25158632  0.39899278  0.06482370    -0.82400
C230        C  0.33741207  0.44705672  0.02321102     0.98300
C231        C  0.33737899  0.38364981  0.02389668     1.05800
O232        O  0.29690191  0.39519792  0.05940178    -1.11400
O233        O  0.24687907  0.34868110  0.05962226    -0.73800
O234        O  0.26607796  0.35433466  0.01569658    -0.77300
O235        O  0.34551882  0.44219642  0.04692614    -0.78000
C236        C  0.24907160  0.34056753  0.03448351     0.97300
O237        O  0.26236909  0.40082959  0.01701622    -0.76000
O238        O  0.27974989  0.35992354  0.10873663    -0.81200
C239        C  0.30390029  0.42977159  0.11966789     0.99900
C240        C  0.30153313  0.36496017  0.11799311     1.05800
O241        O  0.32408097  0.43465418  0.10563915    -0.76800
C242        C  0.24985525  0.40378261  0.03780305     1.04100
Fe243      Fe  0.21737342  0.28076747  0.24199309     1.65800
Fe244      Fe  0.22893914  0.26933801  0.31192168     1.73200
Fe245      Fe  0.24945680  0.24957204  0.25168282     1.54400
O246        O  0.22290906  0.23201197  0.21716029    -0.80500
O247        O  0.26770135  0.28563408  0.31651328    -0.78800
O248        O  0.19618924  0.24692935  0.22059100    -0.83000
O249        O  0.24641903  0.29322843  0.21110381    -0.77900
O250        O  0.22757058  0.21770714  0.27717496    -0.79700
O251        O  0.23447405  0.30590651  0.30994086    -0.82400
C252        C  0.26744862  0.29368392  0.20856836     0.98300
C253        C  0.20235725  0.23155110  0.21004904     1.05800
O254        O  0.23190241  0.26643468  0.26859116    -1.11400
O255        O  0.18967559  0.25366697  0.31077641    -0.73800
O256        O  0.18604287  0.27055363  0.26853633    -0.77300
O257        O  0.27317510  0.28019718  0.22453619    -0.78000
C258        C  0.17680615  0.25856425  0.29261466     0.97300
O259        O  0.23748581  0.31554076  0.26181192    -0.76000
O260        O  0.22289044  0.23321067  0.32020916    -0.81200
C261        C  0.28355183  0.28025957  0.30521325     0.99900
C262        C  0.22069232  0.21495373  0.30430685     1.05800
O263        O  0.27815961  0.26482315  0.28367111    -0.76800
C264        C  0.23961381  0.32177588  0.28902338     1.04100
Fe265      Fe  0.38484337  0.11383814  0.90637366     1.65800
Fe266      Fe  0.39439027  0.10125802  0.97754013     1.73200
Fe267      Fe  0.41625852  0.08158928  0.91745734     1.54400
O268        O  0.38799744  0.06085118  0.88614092    -0.80500
O269        O  0.43218124  0.11316430  0.98524334    -0.78800
O270        O  0.36647311  0.08136338  0.88164987    -0.83000
O271        O  0.41629018  0.12961570  0.87925514    -0.77900
O272        O  0.39711189  0.05097308  0.94584433    -0.79700
O273        O  0.40423199  0.13922647  0.97620336    -0.82400
C274        C  0.43531481  0.12701733  0.87412603     0.98300
C275        C  0.36976310  0.06298004  0.87563608     1.05800
O276        O  0.39852856  0.09884951  0.93387807    -1.11400
O277        O  0.35587494  0.08969644  0.97525692    -0.73800
O278        O  0.35146700  0.10064228  0.92943495    -0.77300
O279        O  0.43830022  0.11010262  0.88663786    -0.78000
C280        C  0.34261390  0.09176134  0.95491780     0.97300
O281        O  0.40155599  0.14766694  0.92856550    -0.76000
O282        O  0.38395300  0.06384202  0.98496725    -0.81200
C283        C  0.44956650  0.11130631  0.97174326     0.99900
C284        C  0.38604765  0.04691271  0.97096739     1.05800
O285        O  0.44611090  0.10003822  0.94692217    -0.76800
C286        C  0.40664898  0.15443669  0.95551254     1.04100
Fe287      Fe  0.45931033  0.22617094  0.68339135     1.65800
Fe288      Fe  0.43569788  0.21397037  0.75429454     1.73200
Fe289      Fe  0.00032188  0.24698289  0.74402902     1.54400
O290        O  0.01237010  0.22851881  0.71548727    -0.80500
O291        O  0.45044544  0.24512513  0.78159061    -0.78800
O292        O  0.48665138  0.21624664  0.67601605    -0.83000
O293        O  0.48544207  0.26385393  0.67666963    -0.77900
O294        O  0.99262422  0.21869228  0.77546723    -0.79700
O295        O  0.41777560  0.22964576  0.73201988    -0.82400
C296        C  0.00468303  0.28111170  0.69029842     0.98300
C297        C  0.00553954  0.21799342  0.69010896     1.05800
O298        O  0.46518616  0.22904411  0.72720906    -1.11400
O299        O  0.41696583  0.18091589  0.73059154    -0.73800
O300        O  0.43216916  0.18777554  0.68429970    -0.77300
O301        O  0.01236976  0.27730660  0.71499187    -0.78000
C302        C  0.41733765  0.17327740  0.70449394     0.97300
O303        O  0.43113356  0.23598660  0.68494922    -0.76000
O304        O  0.45015210  0.19641552  0.77966174    -0.81200
C305        C  0.47212961  0.26430634  0.78697888     0.99900
C306        C  0.47211875  0.20026214  0.78615597     1.05800
O307        O  0.49262849  0.26785750  0.77484553    -0.76800
C308        C  0.41732606  0.23679841  0.70572546     1.04100
Fe309      Fe  0.39446238  0.28698673  0.97681145     1.65800
Fe310      Fe  0.38365050  0.26422496  0.90586341     1.73200
Fe311      Fe  0.41626165  0.32819063  0.91669069     1.54400
O312        O  0.39657709  0.33959573  0.94430772    -0.80500
O313        O  0.41500556  0.27954161  0.87844133    -0.78800
O314        O  0.38555584  0.31482717  0.98435572    -0.83000
O315        O  0.43262079  0.31195760  0.98385392    -0.77900
O316        O  0.38866825  0.32060953  0.88432841    -0.79700
O317        O  0.40004372  0.24676969  0.92782376    -0.82400
C318        C  0.44971458  0.33188361  0.97104529     0.98300
C319        C  0.38652739  0.33313128  0.97001359     1.05800
O320        O  0.39819363  0.29321722  0.93317030    -1.11400
O321        O  0.35036078  0.24495502  0.92948965    -0.73800
O322        O  0.35556640  0.26132656  0.97496053    -0.77300
O323        O  0.44585029  0.34018750  0.94689216    -0.78000
C324        C  0.34171647  0.24608579  0.95476411     0.97300
O325        O  0.40281785  0.25793975  0.97546983    -0.76000
O326        O  0.36550778  0.27842988  0.88111491    -0.81200
C327        C  0.43472325  0.30100422  0.87403964     0.99900
C328        C  0.36984616  0.30031076  0.87418982     1.05800
O329        O  0.43845237  0.32108861  0.88698164    -0.76800
C330        C  0.40512739  0.24508602  0.95473843     1.04100
Fe331      Fe  0.20825150  0.10219810  0.97532312     1.65800
Fe332      Fe  0.23101057  0.11405906  0.90407966     1.73200
Fe333      Fe  0.16648802  0.08091149  0.91541459     1.54400
O334        O  0.15571134  0.05024097  0.94348181    -0.80500
O335        O  0.21539330  0.12981488  0.87775980    -0.78800
O336        O  0.18213986  0.06441068  0.98241051    -0.83000
O337        O  0.18127187  0.11234558  0.98332848    -0.77900
O338        O  0.17430218  0.06092023  0.88321140    -0.79700
O339        O  0.24880245  0.14765635  0.92661967    -0.82400
C340        C  0.16163476  0.10973706  0.97020458     0.98300
C341        C  0.16344241  0.04676256  0.96833592     1.05800
O342        O  0.20184773  0.09902796  0.93165266    -1.11400
O343        O  0.25058619  0.10040044  0.92674197    -0.73800
O344        O  0.23640231  0.09256572  0.97344945    -0.77300
O345        O  0.15400882  0.09834266  0.94533678    -0.78000
C346        C  0.25100280  0.09304604  0.95289688     0.97300
O347        O  0.23535397  0.14056644  0.97367164    -0.76000
O348        O  0.21673969  0.08217629  0.87841251    -0.81200
C349        C  0.19353360  0.12684415  0.87286056     0.99900
C350        C  0.19488035  0.06367634  0.87211846     1.05800
O351        O  0.17324075  0.10960696  0.88520715    -0.76800
C352        C  0.24913253  0.15524662  0.95294061     1.04100
Fe353      Fe  0.27344762  0.04002012  0.68444070     1.65800
Fe354      Fe  0.28475188  0.06356784  0.75420482     1.73200
Fe355      Fe  0.25150245  0.50023983  0.74427549     1.54400
O356        O  0.22263004  0.48604375  0.71255626    -0.80500
O357        O  0.30499185  0.05030024  0.77618363    -0.78800
O358        O  0.23461636  0.01818135  0.67941386    -0.83000
O359        O  0.27821352  0.00918319  0.67710274    -0.77900
O360        O  0.22814341  0.50778662  0.77092928    -0.79700
O361        O  0.31669519  0.08411351  0.72796223    -0.82400
C362        C  0.27936604  0.49349024  0.69174422     0.98300
C363        C  0.21698252  0.49588679  0.69118667     1.05800
O364        O  0.26994672  0.03451804  0.72769826    -1.11400
O365        O  0.26561766  0.07879379  0.73362751    -0.73800
O366        O  0.26932760  0.07178821  0.68569757    -0.77300
O367        O  0.27301574  0.48985336  0.71902866    -0.78000
C368        C  0.26427851  0.08289974  0.70625428     0.97300
O369        O  0.31279869  0.06288855  0.68604111    -0.76000
O370        O  0.25492936  0.04737303  0.78448694    -0.81200
C371        C  0.29793651  0.02863126  0.78698915     0.99900
C372        C  0.23328000  0.02714716  0.78586527     1.05800
O373        O  0.27819355  0.50966715  0.77853022    -0.76800
C374        C  0.32587133  0.08087823  0.70404253     1.04100
Fe375      Fe  0.28408497  0.21452074  0.75371905     1.65800
Fe376      Fe  0.27372512  0.22639975  0.68276872     1.73200
Fe377      Fe  0.25132284  0.24532474  0.74270092     1.54400
O378        O  0.22895841  0.21590576  0.77191503    -0.80500
O379        O  0.28097812  0.26265873  0.67471038    -0.78800
O380        O  0.25298877  0.19889062  0.78176058    -0.83000
O381        O  0.30255542  0.24727091  0.77788646    -0.77900
O382        O  0.22209678  0.22734335  0.71207443    -0.79700
O383        O  0.31287602  0.24105897  0.68494525    -0.82400
C384        C  0.29777278  0.26441318  0.78534226     0.98300
C385        C  0.23298006  0.20014362  0.78555750     1.05800
O386        O  0.26971644  0.22883975  0.72635290    -1.11400
O387        O  0.26721666  0.18964634  0.68422542    -0.73800
O388        O  0.26711847  0.18043102  0.73216262    -0.77300
O389        O  0.27863613  0.26541876  0.77558075    -0.78000
C390        C  0.26391775  0.17421793  0.70496123     0.97300
O391        O  0.31718690  0.22785570  0.72953826    -0.76000
O392        O  0.23520298  0.21140785  0.67592208    -0.81200
C393        C  0.28006031  0.27998401  0.68926749     0.99900
C394        C  0.21808393  0.21433068  0.68847100     1.05800
O395        O  0.27089008  0.27652560  0.71541730    -0.76800
C396        C  0.32622735  0.23833595  0.70463577     1.04100
C397        C  0.27312804  0.12149305  0.67771155     0.24700
C398        C  0.25819446  0.10264079  0.69871841    -0.23400
C399        C  0.24083319  0.10556148  0.71662918     0.19600
C400        C  0.24065756  0.12823856  0.71623281     0.24700
C401        C  0.25774356  0.14826963  0.69780974    -0.23300
C402        C  0.27288112  0.14426547  0.67724940     0.19600
F403        F  0.28970356  0.16344116  0.65938657    -0.13300
F404        F  0.29015516  0.11919211  0.66021480    -0.15600
F405        F  0.22529685  0.13142159  0.73563488    -0.15600
F406        F  0.22545274  0.08719457  0.73621846    -0.13300
C407        C  0.18923549  0.13752812  0.82104560     0.24700
C408        C  0.19285511  0.14447217  0.85120908    -0.23400
C409        C  0.20451483  0.17029876  0.85888284     0.19600
C410        C  0.21511685  0.18901176  0.83677438     0.24700
C411        C  0.21402951  0.18202255  0.80680162    -0.23300
C412        C  0.19981761  0.15622985  0.79895026     0.19600
F413        F  0.19860398  0.14913188  0.77007306    -0.13300
F414        F  0.17848975  0.11274253  0.81314441    -0.15600
F415        F  0.22902862  0.21380564  0.84486949    -0.15600
F416        F  0.20828875  0.17738513  0.88794986    -0.13300
C417        C  0.19033020  0.04739770  0.82043240     0.24700
C418        C  0.19452647  0.04522110  0.85072624    -0.23400
C419        C  0.20622450  0.03132638  0.85896255     0.19600
C420        C  0.21636874  0.02242576  0.83723518     0.24700
C421        C  0.21464663  0.02706299  0.80701765    -0.23300
C422        C  0.20028688  0.03826062  0.79866189     0.19600
F423        F  0.19829666  0.04275730  0.76950968    -0.13300
F424        F  0.17941519  0.06104552  0.81193695    -0.15600
F425        F  0.23023387  0.01172944  0.84578431    -0.15600
F426        F  0.21026644  0.02883419  0.88814449    -0.13300
C427        C  0.27400565  0.19990318  0.93614096     0.24700
C428        C  0.26768738  0.18212840  0.95913283    -0.23400
C429        C  0.28307532  0.18919575  0.98479066     0.19600
C430        C  0.30647268  0.21219488  0.98529567     0.24700
C431        C  0.31444853  0.22801669  0.96013084    -0.23300
C432        C  0.29724389  0.22262866  0.93661178     0.19600
F433        F  0.30411423  0.23817219  0.91256968    -0.13300
F434        F  0.25890487  0.19413902  0.91170530    -0.15600
F435        F  0.32257708  0.21737294  0.00861302    -0.15600
F436        F  0.27712132  0.17261864  0.00764280    -0.13300
C437        C  0.34154564  0.29731621  0.79999247     0.24700
C438        C  0.31536132  0.28304180  0.80712069    -0.23400
C439        C  0.30772778  0.28080153  0.83701985     0.19600
C440        C  0.32616071  0.28989515  0.85960488     0.24700
C441        C  0.35229488  0.30125601  0.85243593    -0.23300
C442        C  0.35995357  0.30639031  0.82255575     0.19600
F443        F  0.38506705  0.31714715  0.81514117    -0.13300
F444        F  0.34925399  0.29993187  0.77116028    -0.15600
F445        F  0.31845397  0.28527793  0.88846387    -0.15600
F446        F  0.28255677  0.26692070  0.84443066    -0.13300
C447        C  0.35889664  0.11648451  0.67352161     0.24700
C448        C  0.35270772  0.09966483  0.69755996    -0.23400
C449        C  0.37097789  0.10501032  0.71974744     0.19600
C450        C  0.39383267  0.12821323  0.71993795     0.24700
C451        C  0.39868798  0.14648163  0.69801290    -0.23300
C452        C  0.38191332  0.13988762  0.67370941     0.19600
F453        F  0.38620031  0.15720911  0.65223828    -0.13300
F454        F  0.34137493  0.11169800  0.65195736    -0.15600
F455        F  0.41012664  0.13382945  0.74315486    -0.15600
F456        F  0.36552559  0.08879978  0.74290000    -0.13300
C457        C  0.38314752  0.23688196  0.67440789     0.24700
C458        C  0.39890476  0.24528413  0.69977547    -0.23400
C459        C  0.39346851  0.25760217  0.72264284     0.19600
C460        C  0.37079807  0.25811608  0.72230359     0.24700
C461        C  0.35325368  0.24652758  0.69900047    -0.23300
C462        C  0.36032229  0.23752180  0.67402595     0.19600
F463        F  0.34379861  0.22654916  0.65102819    -0.13300
F464        F  0.38821082  0.22538706  0.65168506    -0.15600
F465        F  0.36477240  0.26768527  0.74624619    -0.15600
F466        F  0.40897239  0.26705763  0.74675634    -0.13300
C467        C  0.47655430  0.27996203  0.83884727     0.24700
C468        C  0.47254447  0.28260874  0.80865502    -0.23400
C469        C  0.46166888  0.29732589  0.80070703     0.19600
C470        C  0.45211902  0.30667105  0.82269254     0.24700
C471        C  0.45355426  0.30152447  0.85282795    -0.23300
C472        C  0.46719527  0.28948115  0.86081435     0.19600
F473        F  0.46900678  0.28457499  0.88986155    -0.13300
F474        F  0.48675104  0.26559370  0.84704352    -0.15600
F475        F  0.43884149  0.31806375  0.81443315    -0.15600
F476        F  0.45792066  0.30034677  0.77158857    -0.13300
C477        C  0.29778544  0.07170637  0.93815701     0.24700
C478        C  0.31596974  0.08479877  0.96047964    -0.23400
C479        C  0.31003614  0.09628735  0.98385581     0.19600
C480        C  0.28719257  0.09680387  0.98319350     0.24700
C481        C  0.27026649  0.08586549  0.95912425    -0.23300
C482        C  0.27511569  0.07220697  0.93749042     0.19600
F483        F  0.25891172  0.06120602  0.91421734    -0.13300
F484        F  0.30310245  0.06049199  0.91535507    -0.15600
F485        F  0.28318289  0.11060597  0.00395722    -0.15600
F486        F  0.32766875  0.10971301  0.00513685    -0.13300
C487        C  0.32542603  0.03121098  0.86174558     0.24700
C488        C  0.35161661  0.04423037  0.85452535    -0.23400
C489        C  0.35915589  0.04555697  0.82475747     0.19600
C490        C  0.34083315  0.03726405  0.80218553     0.24700
C491        C  0.31487685  0.02737206  0.80930065    -0.23300
C492        C  0.30705811  0.02280189  0.83918348     0.19600
F493        F  0.28356741  0.51140208  0.84367873    -0.13300
F494        F  0.31786305  0.02919936  0.89057670    -0.15600
F495        F  0.34864040  0.04133563  0.77334190    -0.15600
F496        F  0.38437498  0.05795987  0.81740494    -0.13300
C497        C  0.42873837  0.19997568  0.94168579     0.24700
C498        C  0.41390922  0.18085616  0.96240302    -0.23400
C499        C  0.40126549  0.18602565  0.98525267     0.19600
C500        C  0.40068016  0.20867433  0.98488001     0.24700
C501        C  0.41269121  0.22621151  0.96162370    -0.23300
C502        C  0.42806388  0.22241423  0.94123986     0.19600
F503        F  0.44073550  0.23951249  0.91928288    -0.13300
F504        F  0.44202164  0.19593821  0.92012040    -0.15600
F505        F  0.38585827  0.21195881  0.00502405    -0.15600
F506        F  0.38688565  0.16794756  0.00565047    -0.13300
C507        C  0.46804816  0.17088667  0.86015306     0.24700
C508        C  0.45414798  0.14499748  0.85255041    -0.23400
C509        C  0.45226134  0.13802183  0.82245164     0.19600
C510        C  0.46157836  0.15670937  0.80021428     0.24700
C511        C  0.47279267  0.18252268  0.80783313    -0.23300
C512        C  0.47727700  0.18955253  0.83794271     0.19600
F513        F  0.48761528  0.21427937  0.84590039    -0.13300
F514        F  0.47010557  0.17802721  0.88911760    -0.15600
F515        F  0.45730904  0.14952575  0.77120290    -0.15600
F516        F  0.43869230  0.11317310  0.81449911    -0.13300
C517        C  0.35307399  0.47559787  0.97886703     0.24700
C518        C  0.35197340  0.47265901  0.00999295    -0.23400
C519        C  0.36353288  0.49438183  0.02816517     0.19600
C520        C  0.37356183  0.01819577  0.01556860     0.24700
C521        C  0.37500567  0.02129708  0.98442491    -0.23300
C522        C  0.36558765  0.99961821  0.96622421     0.19600
F523        F  0.36647309  0.00175126  0.93610002    -0.13300
F524        F  0.34271639  0.45499113  0.96067384    -0.15600
F525        F  0.38302310  0.03866777  0.03391036    -0.15600
F526        F  0.36283433  0.49217192  0.05827572    -0.13300
C527        C  0.35522310  0.37304908  0.97936859     0.24700
C528        C  0.35123747  0.37196906  0.01036032    -0.23400
C529        C  0.35960849  0.35866925  0.02805568     0.19600
C530        C  0.37135507  0.34637479  0.01501414     0.24700
C531        C  0.37513345  0.34719749  0.98392482    -0.23300
C532        C  0.36711874  0.36090182  0.96630611     0.19600
F533        F  0.37002720  0.36195717  0.93626049    -0.13300
F534        F  0.34763914  0.38594596  0.96158966    -0.15600
F535        F  0.37897272  0.33361542  0.03297738    -0.15600
F536        F  0.35554744  0.35669016  0.05793409    -0.13300
C537        C  0.28888410  0.32103067  0.13300997     0.24700
C538        C  0.30186616  0.34708131  0.13976658    -0.23400
C539        C  0.30924467  0.35484052  0.16932284     0.19600
C540        C  0.30085557  0.33673555  0.19219831     0.24700
C541        C  0.28513623  0.31078945  0.18565175    -0.23300
C542        C  0.28044630  0.30299755  0.15581005     0.19600
F543        F  0.26531904  0.27804999  0.14896588    -0.13300
F544        F  0.28253743  0.31310310  0.10446081    -0.15600
F545        F  0.30563256  0.34464604  0.22094630    -0.15600
F546        F  0.32183696  0.37988597  0.17642567    -0.13300
C547        C  0.02135475  0.14590228  0.97996394     0.24700
C548        C  0.02415275  0.14797918  0.01108409    -0.23400
C549        C  0.00224356  0.13720501  0.02928206     0.19600
C550        C  0.47791258  0.12498132  0.01651375     0.24700
C551        C  0.47512459  0.12319298  0.98534909    -0.23300
C552        C  0.49705732  0.13357442  0.96719854     0.19600
F553        F  0.49507160  0.13258922  0.93705476    -0.13300
F554        F  0.04216571  0.15576208  0.96179629    -0.15600
F555        F  0.45708837  0.11484094  0.03466774    -0.15600
F556        F  0.00436007  0.13925885  0.05938410    -0.13300
C557        C  0.13315262  0.12845896  0.96704489     0.24700
C558        C  0.14745095  0.12095286  0.98439993    -0.23400
C559        C  0.14909765  0.12543920  0.01540010     0.19600
C560        C  0.13704367  0.13744148  0.02853510     0.24700
C561        C  0.12340661  0.14555762  0.01099989    -0.23300
C562        C  0.12139811  0.14074238  0.98015781     0.19600
F563        F  0.10806378  0.14800753  0.96260094    -0.13300
F564        F  0.13135179  0.12487910  0.93710048    -0.15600
F565        F  0.13972861  0.14215252  0.05826859    -0.15600
F566        F  0.16254893  0.11840277  0.03308691    -0.13300
C567        C  0.19127204  0.28367379  0.00273153     0.24700
C568        C  0.18485075  0.26705739  0.02704675    -0.23400
C569        C  0.20288846  0.27256844  0.04955675     0.19600
C570        C  0.22544445  0.29587267  0.05007655     0.24700
C571        C  0.23057818  0.31388983  0.02782366    -0.23300
C572        C  0.21424372  0.30713619  0.00308415     0.19600
F573        F  0.21885626  0.32435339  0.98136106    -0.13300
F574        F  0.17399688  0.27871368  0.98079884    -0.15600
F575        F  0.24092768  0.30195585  0.07412681    -0.15600
F576        F  0.19721589  0.25662804  0.07302845    -0.13300
C577        C  0.15877829  0.19947914  0.19340646     0.24700
C578        C  0.18514899  0.21383610  0.18728993    -0.23400
C579        C  0.19360051  0.21679956  0.15765171     0.19600
C580        C  0.17583775  0.20857856  0.13439844     0.24700
C581        C  0.14954550  0.19700971  0.14064116    -0.23300
C582        C  0.14103437  0.19102086  0.17017175     0.19600
F583        F  0.11570841  0.17986158  0.17667147    -0.13300
F584        F  0.15025231  0.19590732  0.22195651    -0.15600
F585        F  0.18433990  0.21390598  0.10587122    -0.15600
F586        F  0.21896376  0.23044805  0.15119693    -0.13300
C587        C  0.10940074  0.23871543  0.27573828     0.24700
C588        C  0.10465135  0.25247100  0.29741997    -0.23400
C589        C  0.12127996  0.26260626  0.32195859     0.19600
C590        C  0.14397360  0.26177221  0.32262186     0.24700
C591        C  0.15007809  0.25084911  0.29881102    -0.23300
C592        C  0.13201160  0.23810863  0.27632627     0.19600
F593        F  0.13749472  0.22729957  0.25320807    -0.13300
F594        F  0.09321952  0.22773437  0.25244608    -0.15600
F595        F  0.16131518  0.27430362  0.34448309    -0.15600
F596        F  0.11713690  0.27580124  0.34342104    -0.13300
C597        C  0.03751599  0.21046062  0.13552028     0.24700
C598        C  0.05044610  0.19748929  0.14234850    -0.23400
C599        C  0.05180192  0.19141923  0.17219316     0.19600
C600        C  0.04247996  0.20035995  0.19501057     0.24700
C601        C  0.03190607  0.21557110  0.18817533    -0.23300
C602        C  0.02843624  0.21954336  0.15824433     0.19600
F603        F  0.51851767  0.23432735  0.15111050    -0.13300
F604        F  0.03575034  0.21629297  0.10685631    -0.15600
F605        F  0.04601353  0.19628153  0.22383207    -0.15600
F606        F  0.06452115  0.17922156  0.17941456    -0.13300
C607        C  0.00226052  0.35701274  0.02877222     0.24700
C608        C  0.02422190  0.37065004  0.01100301    -0.23400
C609        C  0.02147239  0.37208650  0.98010055     0.19600
C610        C  0.99722844  0.35989877  0.96714503     0.24700
C611        C  0.47528873  0.34585345  0.98487345    -0.23300
C612        C  0.47804796  0.34473536  0.01586936     0.19600
F613        F  0.45726252  0.33170440  0.03373926    -0.13300
F614        F  0.00427104  0.35487184  0.05859446    -0.15600
F615        F  0.99538162  0.36124869  0.93716201    -0.17400
F616        F  0.04228890  0.38540735  0.96235755    -0.13300
C617        C  0.14935342  0.01777942  0.01255902     0.24700
C618        C  0.15048856  0.02098150  0.98143801    -0.23400
C619        C  0.14014039  0.99935665  0.96304608     0.19600
C620        C  0.12318585  0.47509462  0.98009476     0.24700
C621        C  0.12449403  0.47230244  0.01098897    -0.23300
C622        C  0.13742612  0.49408325  0.02885949     0.19600
F623        F  0.13917241  0.49194322  0.05872757    -0.13300
F624        F  0.15899234  0.03816686  0.03104996    -0.15600
F625        F  0.11034655  0.45437296  0.96235789    -0.15600
F626        F  0.14133817  0.00170631  0.93293795    -0.13300
C627        C  0.10079054  0.30895488  0.00380520     0.24700
C628        C  0.08798029  0.31419706  0.02635340    -0.23400
C629        C  0.07255714  0.29509052  0.04667835     0.19600
C630        C  0.07244944  0.27229273  0.04698508     0.24700
C631        C  0.08789733  0.26824640  0.02705045    -0.23300
C632        C  0.10069924  0.28593169  0.00409895     0.19600
F633        F  0.11558526  0.28236262  0.98433390    -0.13300
F634        F  0.11584219  0.32719720  0.98389363    -0.15600
F635        F  0.05917542  0.25515536  0.06866761    -0.15600
F636        F  0.05963643  0.29957060  0.06824056    -0.13300
C637        C  0.04920876  0.35507190  0.17044905     0.24700
C638        C  0.04850916  0.34643420  0.14127184    -0.23400
C639        C  0.03578705  0.32015602  0.13587180     0.19600
C640        C  0.02660349  0.30291387  0.15955477     0.24700
C641        C  0.03044468  0.31174959  0.18900661    -0.23300
C642        C  0.04046807  0.33782709  0.19423774     0.19600
F643        F  0.04390566  0.34677806  0.22254772    -0.13300
F644        F  0.06113287  0.38033509  0.17626742    -0.15600
F645        F  0.51709887  0.27792421  0.15390443    -0.15600
F646        F  0.03431743  0.31132148  0.10780162    -0.13300
C647        C  0.19027193  0.39947218  0.00766224     0.24700
C648        C  0.18502478  0.41188262  0.03059606    -0.23400
C649        C  0.20427846  0.42678290  0.05115448     0.19600
C650        C  0.22715452  0.42661898  0.05120706     0.24700
C651        C  0.23103182  0.41142944  0.03080323    -0.23300
C652        C  0.21323340  0.39921285  0.00778331     0.19600
F653        F  0.21647637  0.38435078  0.98782529    -0.13300
F654        F  0.17190327  0.38484712  0.98760974    -0.15600
F655        F  0.24451307  0.43941194  0.07295352    -0.15600
F656        F  0.19993824  0.43954642  0.07297721    -0.13300
C657        C  0.23606718  0.37702572  0.32101772     0.24700
C658        C  0.24755438  0.39455887  0.29773535    -0.23400
C659        C  0.26122723  0.39013131  0.27565369     0.19600
C660        C  0.26108501  0.36731676  0.27484346     0.24700
C661        C  0.24677119  0.34823337  0.29585473    -0.23300
C662        C  0.23562834  0.35386030  0.32009428     0.19600
F663        F  0.22188277  0.33598443  0.34095878    -0.13300
F664        F  0.22265994  0.38094528  0.34253779    -0.15600
F665        F  0.27311579  0.36305380  0.25193078    -0.15600
F666        F  0.27259555  0.40689869  0.25308441    -0.13300
C667        C  0.29338143  0.46255490  0.13438686     0.24700
C668        C  0.30417474  0.44765259  0.14179946    -0.23400
C669        C  0.30810225  0.44446778  0.17183276     0.19600
C670        C  0.29882295  0.45371748  0.19414376     0.24700
C671        C  0.28499558  0.46567186  0.18667037    -0.23300
C672        C  0.28378736  0.47153720  0.15675288     0.19600
F673        F  0.27071005  0.48326046  0.14900649    -0.13300
F674        F  0.28974832  0.46610104  0.10541453    -0.15600
F675        F  0.30133824  0.44908742  0.22306843    -0.15600
F676        F  0.31833496  0.43001418  0.17950247    -0.13300
C677        C  0.12207891  0.35374002  0.32468570     0.24700
C678        C  0.10297704  0.34828327  0.30352009    -0.23400
C679        C  0.10640891  0.36698973  0.28294950     0.19600
C680        C  0.12979630  0.38965073  0.28114255     0.24700
C681        C  0.15007641  0.39394357  0.29996488    -0.23300
C682        C  0.14556141  0.37658434  0.32301620     0.19600
F683        F  0.16484095  0.38016964  0.34141566    -0.13300
F684        F  0.11927633  0.33568161  0.34437405    -0.15600
F685        F  0.13336125  0.40640418  0.25926187    -0.15600
F686        F  0.08804094  0.36210470  0.26247127    -0.13300
C687        C  0.15879988  0.45389123  0.19460375     0.24700
C688        C  0.18490924  0.46655028  0.18707385    -0.23400
C689        C  0.19219107  0.47163220  0.15706101     0.19600
C690        C  0.17355224  0.46188908  0.13474821     0.24700
C691        C  0.14755597  0.44682292  0.14227125    -0.23300
C692        C  0.14017340  0.44391758  0.17229334     0.19600
F693        F  0.11518051  0.42900587  0.18000803    -0.13300
F694        F  0.15146092  0.44882007  0.22353755    -0.15600
F695        F  0.18095524  0.46486277  0.10578597    -0.15600
F696        F  0.21730029  0.48331208  0.14930867    -0.13300
C697        C  0.30927705  0.35109444  0.67994852     0.24700
C698        C  0.31389057  0.35411781  0.64912609    -0.23400
C699        C  0.30581031  0.33251416  0.63122735     0.19600
C700        C  0.29436466  0.30836643  0.64413260     0.24700
C701        C  0.29053149  0.30534386  0.67523557    -0.23300
C702        C  0.29760116  0.32700678  0.69286569     0.19600
F703        F  0.29406144  0.32511531  0.72282353    -0.13300
F704        F  0.31617137  0.37158253  0.69768664    -0.15600
F705        F  0.28725411  0.28800596  0.62609641    -0.15600
F706        F  0.31008244  0.33485084  0.60139369    -0.13300
C707        C  0.31374651  0.45652912  0.68288985     0.24700
C708        C  0.31424695  0.45421390  0.65171429    -0.23400
C709        C  0.30186496  0.46362705  0.63391329     0.19600
C710        C  0.29014531  0.47597375  0.64690999     0.24700
C711        C  0.29037608  0.47903277  0.67804171    -0.23300
C712        C  0.30195486  0.46876264  0.69589285     0.19600
F713        F  0.30270504  0.47125518  0.72598713    -0.13300
F714        F  0.32474821  0.44699017  0.70096521    -0.15600
F715        F  0.27864315  0.48500067  0.62888008    -0.15600
F716        F  0.30186326  0.46175371  0.60378598    -0.13300
C717        C  0.34494400  0.29123668  0.33999496     0.24700
C718        C  0.35878841  0.31785203  0.34243684    -0.23400
C719        C  0.34777384  0.33189869  0.33222717     0.19600
C720        C  0.32321775  0.31952160  0.32014899     0.24700
C721        C  0.30950810  0.29297986  0.31749922    -0.23300
C722        C  0.32054738  0.27889562  0.32722818     0.19600
F723        F  0.30742157  0.25319142  0.32506049    -0.13300
F724        F  0.35524364  0.27726095  0.34938282    -0.15600
F725        F  0.31294491  0.33348667  0.31054790    -0.15600
F726        F  0.36055692  0.35760568  0.33458750    -0.13300
C727        C  0.46632096  0.30016464  0.36278773     0.24700
C728        C  0.45723530  0.31259065  0.34449717    -0.23400
C729        C  0.45928229  0.31125483  0.31335309     0.19600
C730        C  0.47097838  0.29870713  0.30087835     0.24700
C731        C  0.48098345  0.28718004  0.31920706    -0.23300
C732        C  0.47808104  0.28766377  0.35028722     0.19600
F733        F  0.48673080  0.27611130  0.36876178    -0.13300
F734        F  0.46464864  0.30074958  0.39290233    -0.15600
F735        F  0.47335251  0.29876223  0.27080094    -0.15600
F736        F  0.45011911  0.32225263  0.29474451    -0.13300
C737        C  0.36921087  0.37541592  0.46610100     0.24700
C738        C  0.38299358  0.36334183  0.47320913    -0.23400
C739        C  0.38519626  0.35817344  0.50310883     0.19600
C740        C  0.37605513  0.36731397  0.52573409     0.24700
C741        C  0.36467127  0.38173035  0.51867565    -0.23300
C742        C  0.36010011  0.38460642  0.48873694     0.19600
F743        F  0.34952046  0.39881713  0.48141400    -0.13300
F744        F  0.36688234  0.38054456  0.43729385    -0.15600
F745        F  0.38051093  0.36424097  0.55457563    -0.15600
F746        F  0.39863791  0.34674211  0.51045759    -0.13300
C747        C  0.21210889  0.18623260  0.34834942     0.24700
C748        C  0.20926107  0.18932464  0.31778551    -0.23400
C749        C  0.19484731  0.16759428  0.30014522     0.19600
C750        C  0.18315622  0.14339862  0.31279913     0.24700
C751        C  0.18568457  0.14023254  0.34343884    -0.23300
C752        C  0.20059815  0.16192276  0.36100395     0.19600
F753        F  0.20332867  0.15970617  0.39063911    -0.13300
F754        F  0.22616665  0.20674068  0.36601250    -0.15600
F755        F  0.16931231  0.12300212  0.29488205    -0.15600
F756        F  0.19123640  0.16973572  0.27071178    -0.13300
C757        C  0.19195085  0.04128854  0.31371969     0.24700
C758        C  0.18813816  0.04059891  0.34475260    -0.23400
C759        C  0.19631262  0.02719342  0.36263286     0.19600
C760        C  0.20714945  0.01399744  0.34966379     0.24700
C761        C  0.21026871  0.01410073  0.31855995    -0.23300
C762        C  0.20297837  0.02825941  0.30078988     0.19600
F763        F  0.20551742  0.02866076  0.27071655    -0.13300
F764        F  0.18483097  0.05445241  0.29574778    -0.15600
F765        F  0.21456312  0.00106388  0.36762666    -0.15600
F766        F  0.19283823  0.02589544  0.39260374    -0.13300
C767        C  0.03722279  0.43912345  0.38435064     0.24700
C768        C  0.01953387  0.43451348  0.36167395    -0.23400
C769        C  0.02653323  0.45182471  0.33804331     0.19600
C770        C  0.04986838  0.47491275  0.33904182     0.24700
C771        C  0.06612302  0.48068964  0.36375063    -0.23300
C772        C  0.06033003  0.46201786  0.38540188     0.19600
F773        F  0.07590774  0.46698334  0.40921466    -0.13300
F774        F  0.03085732  0.42258747  0.40729726    -0.15600
F775        F  0.05497269  0.49277526  0.31798383    -0.15600
F776        F  0.50941213  0.44776783  0.31618879    -0.13300
C777        C  0.01883198  0.30975112  0.64579869     0.24700
C778        C  0.01832897  0.30675227  0.67691673    -0.23400
C779        C  0.02982982  0.32848384  0.69508618     0.19600
C780        C  0.04119125  0.35269233  0.68245671     0.24700
C781        C  0.04147927  0.35572156  0.65132490    -0.23300
C782        C  0.03033546  0.33394408  0.63313680     0.19600
F783        F  0.02979032  0.33594537  0.60307670    -0.13300
F784        F  0.00819515  0.28921875  0.62749265    -0.15600
F785        F  0.05193573  0.37316965  0.70083390    -0.15600
F786        F  0.02923575  0.32633658  0.72519903    -0.13300
C787        C  0.15596122  0.44572949  0.65503576     0.24700
C788        C  0.14186177  0.45823369  0.65396697    -0.23400
C789        C  0.15252754  0.48286090  0.66588990     0.19600
C790        C  0.17695832  0.49490401  0.67818118     0.24700
C791        C  0.19096182  0.48242168  0.67926731    -0.23300
C792        C  0.18030635  0.45768972  0.66795842     0.19600
F793        F  0.19378481  0.44549089  0.66864505    -0.13300
F794        F  0.14603150  0.42185776  0.64404391    -0.15600
F795        F  0.18574103  0.01583428  0.69665803    -0.15600
F796        F  0.13957865  0.49560030  0.66493565    -0.13300
C797        C  0.47531854  0.42684502  0.65726499     0.24700
C798        C  0.48273357  0.41781562  0.63264534    -0.23400
C799        C  0.46533253  0.40550752  0.60943928     0.19600
C800        C  0.44203978  0.40474249  0.60905522     0.24700
C801        C  0.43590790  0.41668507  0.63167203    -0.23300
C802        C  0.45186882  0.42626880  0.65680062     0.19600
F803        F  0.44633457  0.43782684  0.67902638    -0.13300
F804        F  0.99191624  0.43875914  0.67984572    -0.15600
F805        F  0.42664134  0.39464264  0.58496250    -0.15600
F806        F  0.47206521  0.39654502  0.58554106    -0.13300
C807        C  0.13343590  0.00601756  0.52786008     0.24700
C808        C  0.11984505  0.47967556  0.52196884    -0.23400
C809        C  0.11723676  0.47198888  0.49211004     0.19600
C810        C  0.12687219  0.49012994  0.46934926     0.24700
C811        C  0.13733818  0.01478533  0.47465352    -0.23300
C812        C  0.14286821  0.02343381  0.50422205     0.19600
F813        F  0.15457051  0.04863836  0.51027615    -0.13300
F814        F  0.13651707  0.01477125  0.55622178    -0.15600
F815        F  0.12195133  0.48231941  0.44057946    -0.15600
F816        F  0.10287589  0.44702463  0.48492928    -0.13300
C817        C  0.02664996  0.38477159  0.49173889     0.24700
C818        C  0.01812034  0.38237219  0.52127806    -0.23400
C819        C  0.49163078  0.36819964  0.52731498     0.19600
C820        C  0.47396132  0.35931189  0.50393073     0.24700
C821        C  0.48257994  0.36456952  0.47435561    -0.23300
C822        C  0.00895201  0.37595190  0.46836660     0.19600
F823        F  0.01759209  0.38040436  0.43986418    -0.13300
F824        F  0.05204606  0.39831302  0.48537570    -0.15600
F825        F  0.44862285  0.34836498  0.51022546    -0.15600
F826        F  0.48297749  0.36493226  0.55577828    -0.13300
C827        C  0.16446374  0.18514431  0.63181785     0.24700
C828        C  0.14297014  0.17825588  0.64987370    -0.23400
C829        C  0.14625297  0.18320648  0.68059604     0.19600
C830        C  0.17065572  0.19505910  0.69308204     0.24700
C831        C  0.19227755  0.20196761  0.67510316    -0.23300
C832        C  0.18890779  0.19673363  0.64433452     0.19600
F833        F  0.20925329  0.20295530  0.62626011    -0.13300
F834        F  0.16171108  0.17979353  0.60223427    -0.15600
F835        F  0.17298381  0.19908386  0.72294767    -0.15600
F836        F  0.12577725  0.17669790  0.69857485    -0.13300
C837        C  0.04260230  0.18373237  0.68205641     0.24700
C838        C  0.04360034  0.18164912  0.65089879    -0.23400
C839        C  0.03332167  0.19296868  0.63271921     0.19600
C840        C  0.02141267  0.20524456  0.64545146     0.24700
C841        C  0.01976997  0.20667594  0.67662079    -0.23300
C842        C  0.03091332  0.19619001  0.69476677     0.19600
F843        F  0.02958878  0.19702773  0.72490227    -0.13300
F844        F  0.05288188  0.17360590  0.70035235    -0.15600
F845        F  0.01143502  0.21569787  0.62721246    -0.15600
F846        F  0.03383573  0.19128345  0.60260110    -0.13300
C847        C  0.45229532  0.02047182  0.66046964     0.24700
C848        C  0.43526375  0.01384210  0.63644992    -0.23400
C849        C  0.43971472  0.03203076  0.61465445     0.19600
C850        C  0.46269667  0.05499583  0.61418682     0.24700
C851        C  0.48146341  0.06016879  0.63565511    -0.23300
C852        C  0.47547043  0.04370854  0.66007079     0.19600
F853        F  0.99327861  0.04837708  0.68133525    -0.13300
F854        F  0.44954699  0.50282372  0.67897713    -0.15600
F855        F  0.46781107  0.07094047  0.59084753    -0.15600
F856        F  0.42305590  0.02632276  0.59183066    -0.13300
C857        C  0.06766134  0.04233623  0.65868970     0.24700
C858        C  0.07985520  0.05985542  0.63549826    -0.23400
C859        C  0.09564447  0.05633783  0.61556329     0.19600
C860        C  0.09634230  0.03395905  0.61604146     0.24700
C861        C  0.08104563  0.01468371  0.63631656    -0.23300
C862        C  0.06825367  0.01971342  0.65910824     0.19600
F863        F  0.05402720  0.50244381  0.67607697    -0.13300
F864        F  0.05256102  0.04554261  0.67849290    -0.15600
F865        F  0.10983828  0.02999759  0.59468254    -0.15600
F866        F  0.10843102  0.07350515  0.59375970    -0.13300
C867        C  0.11498718  0.13473397  0.49056823     0.24700
C868        C  0.11628205  0.12896483  0.52051181    -0.23400
C869        C  0.13015011  0.11708475  0.52802964     0.19600
C870        C  0.13995700  0.10834348  0.50574898     0.24700
C871        C  0.13644527  0.11187357  0.47568870    -0.23300
C872        C  0.12521440  0.12635943  0.46825156     0.19600
F873        F  0.12195097  0.13019995  0.43926219    -0.13300
F874        F  0.10152564  0.14604079  0.48275521    -0.15600
F875        F  0.15066515  0.09432381  0.51341589    -0.15600
F876        F  0.13233981  0.11214284  0.55692049    -0.13300
C877        C  0.50017502  0.17704567  0.32849051     0.24700
C878        C  0.48588126  0.18847497  0.32074755    -0.23400
C879        C  0.45926130  0.17510948  0.32554549     0.19600
C880        C  0.44718213  0.15071093  0.33801925     0.24700
C881        C  0.46148999  0.13915316  0.34508002    -0.23300
C882        C  0.48804998  0.15251980  0.34019536     0.19600
F883        F  0.50235790  0.14192769  0.34725150    -0.13300
F884        F  0.52588998  0.18942016  0.32403596    -0.15600
F885        F  0.42147041  0.13811549  0.34243215    -0.15600
F886        F  0.94497401  0.18565526  0.31838506    -0.13300
C887        C  0.35549728  0.03252102  0.31125921     0.24700
C888        C  0.35843692  0.03770000  0.34213294    -0.23400
C889        C  0.33637121  0.03062785  0.35947617     0.19600
C890        C  0.31213674  0.01827639  0.34645203     0.24700
C891        C  0.30932989  0.01282727  0.31581264    -0.23300
C892        C  0.33122585  0.02027822  0.29830209     0.19600
F893        F  0.32910280  0.01480542  0.26875751    -0.13300
F894        F  0.37602821  0.03898527  0.29341582    -0.15600
F895        F  0.29346883  0.51451033  0.36325097    -0.15600
F896        F  0.34026402  0.53724877  0.38821479    -0.13300
C897        C  0.40590402  0.46232991  0.37847249     0.24700
C898        C  0.42137525  0.48129701  0.35801380    -0.23400
C899        C  0.43478428  0.47614589  0.33619260     0.19600
C900        C  0.43539546  0.45353361  0.33745175     0.24700
C901        C  0.42263862  0.43608575  0.36063930    -0.23300
C902        C  0.40649453  0.43988163  0.37978238     0.19600
F903        F  0.39301775  0.42284614  0.40150958    -0.13300
F904        F  0.39228048  0.46670685  0.39923257    -0.15600
F905        F  0.45088438  0.45023370  0.31836164    -0.15600
F906        F  0.44690661  0.99295524  0.31453681    -0.13300
C907        C  0.49063205  0.11861604  0.52760868     0.24700
C908        C  0.01681346  0.12978013  0.52100289    -0.23400
C909        C  0.02493950  0.13521640  0.49125363     0.19600
C910        C  0.00689061  0.12660580  0.46825486     0.24700
C911        C  0.48062652  0.11274555  0.47484205    -0.23300
C912        C  0.47258509  0.11005197  0.50461554     0.19600
F913        F  0.44726976  0.09677122  0.51142916    -0.13300
F914        F  0.48244900  0.11381479  0.55628313    -0.15600
F915        F  0.01502505  0.12967512  0.43957261    -0.15600
F916        F  0.05016936  0.14611134  0.48436941    -0.13300
C917        C  0.35995382  0.47191501  0.49032492     0.24700
C918        C  0.36511147  0.48031436  0.51994726    -0.23400
C919        C  0.37719581  0.50650813  0.52582980     0.19600
C920        C  0.38554382  0.02196962  0.50339514     0.24700
C921        C  0.38281628  0.01322203  0.47393471    -0.23300
C922        C  0.36865675  0.98695385  0.46843229     0.19600
F923        F  0.36542109  0.97805856  0.44012132    -0.13300
F924        F  0.34853984  0.44676245  0.48404036    -0.15600
F925        F  0.39920376  0.04721998  0.50933449    -0.15600
F926        F  0.38210146  0.51506122  0.55431495    -0.13300
C927        C  0.03799229  0.09108540  0.38492731     0.24700
C928        C  0.01864312  0.07597232  0.36454868    -0.23400
C929        C  0.02382041  0.06323257  0.34192055     0.19600
C930        C  0.04681459  0.06300642  0.34215075     0.24700
C931        C  0.06470318  0.07549595  0.36501812    -0.23300
C932        C  0.06079602  0.09078917  0.38521636     0.19600
F933        F  0.07819095  0.10382843  0.40682341    -0.13300
F934        F  0.03393752  0.10446765  0.40620557    -0.15600
F935        F  0.05013503  0.04813060  0.32229199    -0.15600
F936        F  0.50540824  0.04852931  0.32195210    -0.13300
Fe937      Fe  0.45153170  0.54708593  0.41687445     1.65800
Fe938      Fe  0.44102314  0.56047987  0.34681150     1.73200
Fe939      Fe  0.42053659  0.57978210  0.40801891     1.54400
O940        O  0.40165158  0.55259801  0.44163462    -0.80500
O941        O  0.45604805  0.59886300  0.34236113    -0.78800
O942        O  0.41807000  0.52725611  0.44018821    -0.83000
O943        O  0.46625906  0.57678921  0.44665266    -0.77900
O944        O  0.38888802  0.55942485  0.38142686    -0.79700
O945        O  0.47826281  0.56746012  0.34827604    -0.82400
C946        C  0.46580972  0.59709875  0.45047033     0.98300
C947        C  0.40191050  0.53281148  0.44988156     1.05800
O948        O  0.43761612  0.56241994  0.39050390    -1.11400
O949        O  0.42673790  0.52169623  0.34645861    -0.73800
O950        O  0.43897879  0.51542132  0.39076876    -0.77300
O951        O  0.45089074  0.60216409  0.43626281    -0.78000
C952        C  0.42918716  0.50766629  0.36528669     0.97300
O953        O  0.48627236  0.56519638  0.39615472    -0.76000
O954        O  0.40427901  0.55308491  0.33923359    -0.81200
C955        C  0.45119125  0.61463858  0.35464347     0.99900
C956        C  0.38604615  0.55184847  0.35459997     1.05800
O957        O  0.43673020  0.60931242  0.37730426    -0.76800
C958        C  0.49333450  0.56998402  0.36924994     1.04100
Fe959      Fe  0.06224818  0.62121990  0.64543050     1.65800
Fe960      Fe  0.05041444  0.59671707  0.57539704     1.73200
Fe961      Fe  0.08360764  0.66081763  0.58393544     1.54400
O962        O  0.06357118  0.67253341  0.61007841    -0.80500
O963        O  0.08106691  0.61181418  0.54659032    -0.78800
O964        O  0.05388094  0.64954254  0.65165069    -0.83000
O965        O  0.10042762  0.64596929  0.65170317    -0.77900
O966        O  0.05641781  0.65227452  0.55052202    -0.79700
O967        O  0.06795660  0.58050470  0.59747976    -0.82400
C968        C  0.11725780  0.66585774  0.63868825     0.98300
C969        C  0.05431551  0.66709774  0.63620132     1.05800
O970        O  0.06542302  0.62631797  0.60164711    -1.11400
O971        O  0.01763231  0.57718245  0.60041362    -0.73800
O972        O  0.02340978  0.59551787  0.64480240    -0.77300
O973        O  0.11310648  0.67391371  0.61452815    -0.78000
C974        C  0.00948358  0.57894221  0.62579676     0.97300
O975        O  0.07025842  0.59206692  0.64498318    -0.76000
O976        O  0.03140694  0.61014234  0.55095863    -0.81200
C977        C  0.10135550  0.63294055  0.54250420     0.99900
C978        C  0.03677008  0.63188288  0.54187951     1.05800
O979        O  0.10600507  0.65308151  0.55591384    -0.76800
C980        C  0.07292133  0.57921371  0.62456877     1.04100
Fe981      Fe  0.05072940  0.94848065  0.57905278     1.65800
Fe982      Fe  0.06232098  0.93544722  0.64893428     1.73200
Fe983      Fe  0.08283250  0.91664080  0.58698419     1.54400
O984        O  0.05505418  0.89776150  0.55423645    -0.80500
O985        O  0.10055072  0.94883936  0.65445844    -0.78800
O986        O  0.03149927  0.91632250  0.55376330    -0.83000
O987        O  0.08149083  0.96436117  0.55038742    -0.77900
O988        O  0.06275695  0.88500174  0.61362670    -0.79700
O989        O  0.07076577  0.97283433  0.64901379    -0.82400
C990        C  0.10105057  0.96258785  0.54511974     0.98300
C991        C  0.03611867  0.89935959  0.54500161     1.05800
O992        O  0.06530466  0.93345851  0.60502214    -1.11400
O993        O  0.02350662  0.92239711  0.64845958    -0.73800
O994        O  0.01799157  0.93484170  0.60397028    -0.77300
O995        O  0.10507695  0.94643734  0.55790648    -0.78000
C996        C  0.00966294  0.92478793  0.62921890     0.97300
O997        O  0.06833025  0.98207595  0.60167386    -0.76000
O998        O  0.05334918  0.89852044  0.65520946    -0.81200
C999        C  0.11734076  0.94600050  0.64102222     0.99900
C1000       C  0.05338482  0.88117593  0.63972236     1.05800
O1001       O  0.11285506  0.93334889  0.61704563    -0.76800
C1002       C  0.07339670  0.98837750  0.62874503     1.04100
Fe1003     Fe  0.12762030  0.55989023  0.35100319     1.65800
Fe1004     Fe  0.10301261  0.54755208  0.42123052     1.73200
Fe1005     Fe  0.16782749  0.58054270  0.41234924     1.54400
O1006       O  0.18011018  0.56179454  0.38457825    -0.80500
O1007       O  0.11779775  0.57812276  0.44936586    -0.78800
O1008       O  0.15553029  0.55092806  0.34415610    -0.83000
O1009       O  0.15310142  0.59776563  0.34497887    -0.77900
O1010       O  0.15950511  0.55245828  0.44429073    -0.79700
O1011       O  0.08584063  0.56407663  0.39900694    -0.82400
C1012       C  0.17251984  0.61483919  0.35859301     0.98300
C1013       C  0.17383580  0.55195445  0.35881234     1.05800
O1014       O  0.13289664  0.56267234  0.39483074    -1.11400
O1015       O  0.08394024  0.51491061  0.39667639    -0.73800
O1016       O  0.10115459  0.52141463  0.35141264    -0.77300
O1017       O  0.18041486  0.61087844  0.38306121    -0.78000
C1018       C  0.08515536  0.50719037  0.37088321     0.97300
O1019       O  0.09871007  0.56840621  0.35178541    -0.76000
O1020       O  0.11689438  0.52932608  0.44625036    -0.81200
C1021       C  0.13932606  0.59752816  0.45469838     0.99900
C1022       C  0.13880435  0.53369216  0.45400196     1.05800
O1023       O  0.15989739  0.60161883  0.44231365    -0.76800
C1024       C  0.08500449  0.56985522  0.37215863     1.04100
Fe1025     Fe  0.43950644  0.87377907  0.34759313     1.65800
Fe1026     Fe  0.45266762  0.89994568  0.41700052     1.73200
Fe1027     Fe  0.41974107  0.83544867  0.41048547     1.54400
O1028       O  0.38836899  0.82251410  0.38281248    -0.80500
O1029       O  0.46918479  0.88604475  0.44524222    -0.78800
O1030       O  0.40194369  0.84632762  0.34187549    -0.83000
O1031       O  0.45091549  0.84762941  0.34238536    -0.77900
O1032       O  0.40007535  0.84444990  0.44179661    -0.79700
O1033       O  0.48644763  0.91669685  0.39365609    -0.82400
C1034       C  0.44821234  0.82860611  0.35677381     0.98300
C1035       C  0.38460816  0.82820555  0.35688701     1.05800
O1036       O  0.43726645  0.86965199  0.39165820    -1.11400
O1037       O  0.43830281  0.91793879  0.39210565    -0.73800
O1038       O  0.42818074  0.90058601  0.34695125    -0.77300
O1039       O  0.43703627  0.82199084  0.38189650    -0.78000
C1040       C  0.42952740  0.91643521  0.36616045     0.97300
O1041       O  0.47767329  0.90201667  0.34717608    -0.76000
O1042       O  0.42060169  0.88672532  0.44326362    -0.81200
C1043       C  0.46627518  0.86464480  0.45198587     0.99900
C1044       C  0.40258576  0.86515559  0.45141257     1.05800
O1045       O  0.44898150  0.84397568  0.44068588    -0.76800
C1046       C  0.49307496  0.91647039  0.36693285     1.04100
Fe1047     Fe  0.37505289  0.93396754  0.64842262     1.65800
Fe1048     Fe  0.40081699  0.94743225  0.57866119     1.73200
Fe1049     Fe  0.33591736  0.91471391  0.58600971     1.54400
O1050       O  0.32276486  0.88384213  0.61425068    -0.80500
O1051       O  0.38729197  0.96543407  0.55241103    -0.78800
O1052       O  0.34876636  0.89628478  0.65359590    -0.83000
O1053       O  0.34765418  0.94368220  0.65471681    -0.77900
O1054       O  0.34443833  0.89442309  0.55523495    -0.79700
O1055       O  0.41855895  0.97992934  0.60336308    -0.82400
C1056       C  0.32928049  0.94261189  0.64016421     0.98300
C1057       C  0.32974678  0.87956437  0.63913226     1.05800
O1058       O  0.37051087  0.93199162  0.60439041    -1.11400
O1059       O  0.41806246  0.93139352  0.60166713    -0.73800
O1060       O  0.40333910  0.92442058  0.64818006    -0.77300
O1061       O  0.32308762  0.93277165  0.61435878    -0.78000
C1062       C  0.41784944  0.92406806  0.62804430     0.97300
O1063       O  0.40198098  0.97228006  0.64903310    -0.76000
O1064       O  0.38688547  0.91681542  0.55065204    -0.81200
C1065       C  0.36553509  0.96155282  0.54472853     0.99900
C1066       C  0.36526665  0.89810824  0.54386868     1.05800
O1067       O  0.34470443  0.94336865  0.55493529    -0.76800
C1068       C  0.41727264  0.98710422  0.62943151     1.04100
Fe1069     Fe  0.22831596  0.95342380  0.31159770     1.65800
Fe1070     Fe  0.21538909  0.92867688  0.24167116     1.73200
Fe1071     Fe  0.24938153  0.49477660  0.24979618     1.54400
O1072       O  0.23354436  0.50812878  0.28065794    -0.80500
O1073       O  0.24863770  0.94113076  0.21813623    -0.78800
O1074       O  0.21564860  0.97851605  0.31758295    -0.83000
O1075       O  0.26564474  0.98172325  0.31822636    -0.77900
O1076       O  0.21825256  0.98525562  0.22196870    -0.79700
O1077       O  0.22677231  0.90858340  0.26726741    -0.82400
C1078       C  0.28527574  0.50169529  0.30181292     0.98300
C1079       C  0.22114381  0.50022886  0.30494121     1.05800
O1080       O  0.23077991  0.95833510  0.26781766    -1.11400
O1081       O  0.18095395  0.91363431  0.26305600    -0.73800
O1082       O  0.19036197  0.92436289  0.31075035    -0.77300
O1083       O  0.28161397  0.50664025  0.27549050    -0.78000
C1084       C  0.17451414  0.91211938  0.29016529     0.97300
O1085       O  0.24103991  0.92773612  0.31096225    -0.76000
O1086       O  0.20160093  0.94419322  0.21189239    -0.81200
C1087       C  0.26549574  0.96271015  0.20856051     0.99900
C1088       C  0.20282481  0.96525360  0.20791458     1.05800
O1089       O  0.26649219  0.98320542  0.21646368    -0.76800
C1090       C  0.23756437  0.91087737  0.29205879     1.04100
Fe1091     Fe  0.11772008  0.87910559  0.08329791     1.65800
Fe1092     Fe  0.10720268  0.89184230  0.01254387     1.73200
Fe1093     Fe  0.08662194  0.91169586  0.07367402     1.54400
O1094       O  0.06606766  0.88370950  0.10566000    -0.80500
O1095       O  0.11974354  0.92973680  0.00622567    -0.78800
O1096       O  0.08448462  0.86014893  0.10744137    -0.83000
O1097       O  0.13323629  0.90933537  0.11205758    -0.77900
O1098       O  0.05579557  0.89252488  0.04569183    -0.79700
O1099       O  0.14515632  0.90117574  0.01432735    -0.82400
C1100       C  0.13151271  0.92878492  0.11705213     0.98300
C1101       C  0.06710878  0.86468362  0.11518832     1.05800
O1102       O  0.10385330  0.89428730  0.05642032    -1.11400
O1103       O  0.09488004  0.85332802  0.01281110    -0.73800
O1104       O  0.10431089  0.84688283  0.05852933    -0.77300
O1105       O  0.11564617  0.93306972  0.10383027    -0.78000
C1106       C  0.09575693  0.83909252  0.03266103     0.97300
O1107       O  0.15224529  0.89613210  0.06178153    -0.76000
O1108       O  0.06993122  0.88215915  0.00517986    -0.81200
C1109       C  0.11682399  0.94629763  0.01984956     0.99900
C1110       C  0.05237972  0.88276149  0.01993343     1.05800
O1111       O  0.10471171  0.94185292  0.04432823    -0.76800
C1112       C  0.15983013  0.90249603  0.03519691     1.04100
Fe1113     Fe  0.04224276  0.76948917  0.31019005     1.65800
Fe1114     Fe  0.06579995  0.78265546  0.24039331     1.73200
Fe1115     Fe  0.50210855  0.74875985  0.25039350     1.54400
O1116       O  0.48886198  0.72028773  0.28285206    -0.80500
O1117       O  0.05219655  0.80306945  0.21963125    -0.78800
O1118       O  0.02114065  0.73094839  0.31417786    -0.83000
O1119       O  0.01075847  0.77328034  0.31873773    -0.77900
O1120       O  0.51037736  0.72594564  0.22400980    -0.79700
O1121       O  0.08610991  0.81361235  0.26761336    -0.82400
C1122       C  0.49513739  0.77609874  0.30305236     0.98300
C1123       C  0.49961246  0.71495279  0.30365124     1.05800
O1124       O  0.03658803  0.76695493  0.26700157    -1.11400
O1125       O  0.08150317  0.76345822  0.25962366    -0.73800
O1126       O  0.07481400  0.76628913  0.30784817    -0.77300
O1127       O  0.49148159  0.77002571  0.27568011    -0.78000
C1128       C  0.08588936  0.76164023  0.28678463     0.97300
O1129       O  0.06419813  0.80844623  0.30950640    -0.76000
O1130       O  0.04969281  0.75389733  0.20911374    -0.81200
C1131       C  0.03047218  0.79585004  0.20838103     0.99900
C1132       C  0.02957145  0.73222064  0.20755718     1.05800
O1133       O  0.01062839  0.77474146  0.21518469    -0.76800
C1134       C  0.08226855  0.82201442  0.29172919     1.04100
Fe1135     Fe  0.10466113  0.70521883  0.01667592     1.65800
Fe1136     Fe  0.11697833  0.73009759  0.08660123     1.73200
Fe1137     Fe  0.08398719  0.66573850  0.07856433     1.54400
O1138       O  0.05281811  0.65390281  0.05108392    -0.80500
O1139       O  0.13296670  0.71548539  0.11450876    -0.78800
O1140       O  0.06699318  0.67840928  0.01064308    -0.83000
O1141       O  0.11561583  0.67888060  0.01073451    -0.77900
O1142       O  0.06428500  0.67441128  0.11040017    -0.79700
O1143       O  0.15087993  0.74704201  0.06380743    -0.82400
C1144       C  0.11261125  0.65945320  0.02438947     0.98300
C1145       C  0.04938583  0.66036035  0.02547011     1.05800
O1146       O  0.10185806  0.70027675  0.06057560    -1.11400
O1147       O  0.10306118  0.74867264  0.06214196    -0.73800
O1148       O  0.09391534  0.73237884  0.01648460    -0.77300
O1149       O  0.10106350  0.65232862  0.04927936    -0.78000
C1150       C  0.09488455  0.74780116  0.03602125     0.97300
O1151       O  0.14302500  0.73293649  0.01707511    -0.76000
O1152       O  0.08473439  0.71664763  0.11216275    -0.81200
C1153       C  0.13027809  0.69400386  0.12023469     0.99900
C1154       C  0.06661308  0.69507204  0.11993957     1.05800
O1155       O  0.11320430  0.67355405  0.10833481    -0.76800
C1156       C  0.15808115  0.74702946  0.03731251     1.04100
Fe1157     Fe  0.29295595  0.89120555  0.01484730     1.65800
Fe1158     Fe  0.26844763  0.87874597  0.08498517     1.73200
Fe1159     Fe  0.33308445  0.91164986  0.07600578     1.54400
O1160       O  0.34691000  0.89586754  0.04521161    -0.80500
O1161       O  0.28146344  0.91115778  0.10941459    -0.78800
O1162       O  0.31741528  0.87769917  0.00957007    -0.83000
O1163       O  0.32177374  0.92830152  0.00775718    -0.77900
O1164       O  0.32561044  0.88176265  0.10448613    -0.79700
O1165       O  0.24893794  0.89134596  0.05991769    -0.82400
C1166       C  0.33882103  0.94636687  0.02322345     0.98300
C1167       C  0.33791521  0.88203707  0.02211812     1.05800
O1168       O  0.29823651  0.89393417  0.05858373    -1.11400
O1169       O  0.25227593  0.84484455  0.06325144    -0.73800
O1170       O  0.26318632  0.85360112  0.01558684    -0.77300
O1171       O  0.34418842  0.94323503  0.04960970    -0.78000
C1172       C  0.25055812  0.83814124  0.03630402     0.97300
O1173       O  0.26747231  0.90421171  0.01549139    -0.76000
O1174       O  0.28386477  0.86398658  0.11373782    -0.81200
C1175       C  0.30323826  0.92832879  0.11821902     0.99900
C1176       C  0.30533664  0.86572833  0.11796053     1.05800
O1177       O  0.32399849  0.92996414  0.10936689    -0.76800
C1178       C  0.25098502  0.90153385  0.03476057     1.04100
Fe1179     Fe  0.21880640  0.78108963  0.24025159     1.65800
Fe1180     Fe  0.22956001  0.76901813  0.31120156     1.73200
Fe1181     Fe  0.24961738  0.74812203  0.25050206     1.54400
O1182       O  0.22042806  0.72692199  0.22035882    -0.80500
O1183       O  0.26707253  0.77925655  0.31818634    -0.78800
O1184       O  0.20122133  0.74944274  0.21389496    -0.83000
O1185       O  0.25086079  0.79782961  0.21421665    -0.77900
O1186       O  0.23113608  0.71820739  0.28001365    -0.79700
O1187       O  0.24105857  0.80724605  0.31009673    -0.82400
C1188       C  0.26885227  0.79395131  0.20755219     0.98300
C1189       C  0.20338966  0.73029144  0.20857605     1.05800
O1190       O  0.23267183  0.76602735  0.26739823    -1.11400
O1191       O  0.19144094  0.75929130  0.30982674    -0.73800
O1192       O  0.18512988  0.76660824  0.26296351    -0.77300
O1193       O  0.27076237  0.77583910  0.21847946    -0.78000
C1194       C  0.17731683  0.75964225  0.28929037     0.97300
O1195       O  0.23433151  0.81444104  0.26339960    -0.76000
O1196       O  0.21762978  0.73141033  0.31853715    -0.81200
C1197       C  0.28426128  0.77759010  0.30393129     0.99900
C1198       C  0.21984674  0.71441211  0.30497398     1.05800
O1199       O  0.28050311  0.76696844  0.27863239    -0.76800
C1200       C  0.24141667  0.82181898  0.28983060     1.04100
Fe1201     Fe  0.38484318  0.61362331  0.90635605     1.65800
Fe1202     Fe  0.39478760  0.60137305  0.97754695     1.73200
Fe1203     Fe  0.41649725  0.58158842  0.91738003     1.54400
O1204       O  0.38845055  0.56093685  0.88575808    -0.80500
O1205       O  0.43234377  0.61290639  0.98530265    -0.78800
O1206       O  0.36718797  0.58164729  0.88076714    -0.83000
O1207       O  0.41675300  0.63003465  0.87974597    -0.77900
O1208       O  0.39737902  0.55102889  0.94573026    -0.79700
O1209       O  0.40522330  0.63951316  0.97636392    -0.82400
C1210       C  0.43560094  0.62715513  0.87435154     0.98300
C1211       C  0.37061671  0.56339258  0.87459795     1.05800
O1212       O  0.39870257  0.59878126  0.93383213    -1.11400
O1213       O  0.35643420  0.59021313  0.97542526    -0.73800
O1214       O  0.35104169  0.59953134  0.92912494    -0.77300
O1215       O  0.43841719  0.61005776  0.88662687    -0.78000
C1216       C  0.34270614  0.59139219  0.95502311     0.97300
O1217       O  0.40088069  0.64716271  0.92898368    -0.76000
O1218       O  0.38412551  0.56391243  0.98482086    -0.81200
C1219       C  0.44970809  0.61104047  0.97185924     0.99900
C1220       C  0.38633091  0.54703572  0.97084883     1.05800
O1221       O  0.44632064  0.59995195  0.94692838    -0.76800
C1222       C  0.40704140  0.65442868  0.95562316     1.04100
Fe1223     Fe  0.45868537  0.72578023  0.68227795     1.65800
Fe1224     Fe  0.43527448  0.71198804  0.75318498     1.73200
Fe1225     Fe  0.99977962  0.74552277  0.74297723     1.54400
O1226       O  0.01159273  0.72748508  0.71384674    -0.80500
O1227       O  0.45011743  0.74264959  0.78135824    -0.78800
O1228       O  0.48581586  0.71565761  0.67436001    -0.83000
O1229       O  0.48500319  0.76345557  0.67621725    -0.77900
O1230       O  0.99230960  0.71702086  0.77397265    -0.79700
O1231       O  0.41731648  0.72804824  0.73200430    -0.82400
C1232       C  0.00424671  0.78039685  0.69023335     0.98300
C1233       C  0.00461262  0.71711821  0.68843890     1.05800
O1234       O  0.46464364  0.72776288  0.72606296    -1.11400
O1235       O  0.41645097  0.67949967  0.72851303    -0.73800
O1236       O  0.43121243  0.68751572  0.68204626    -0.77300
O1237       O  0.01183928  0.77623115  0.71473660    -0.78000
C1238       C  0.41646031  0.67256527  0.70195669     0.97300
O1239       O  0.43074564  0.73587608  0.68494910    -0.76000
O1240       O  0.44980140  0.69393189  0.77741606    -0.81200
C1241       C  0.47170096  0.76212961  0.78638067     0.99900
C1242       C  0.47186987  0.69827407  0.78425603     1.05800
O1243       O  0.49215857  0.76613610  0.77381558    -0.76800
C1244       C  0.41690046  0.73599486  0.70614936     1.04100
Fe1245     Fe  0.39609588  0.78705163  0.97541686     1.65800
Fe1246     Fe  0.38458611  0.76408488  0.90493567     1.73200
Fe1247     Fe  0.41732472  0.82798632  0.91535696     1.54400
O1248       O  0.40179099  0.84151809  0.94667352    -0.80500
O1249       O  0.41800947  0.77745689  0.88199825    -0.78800
O1250       O  0.38260826  0.81142754  0.98126504    -0.83000
O1251       O  0.43341799  0.81539358  0.98287525    -0.77900
O1252       O  0.38727538  0.82114244  0.88765961    -0.79700
O1253       O  0.39620909  0.74366050  0.92987263    -0.82400
C1254       C  0.45167725  0.83254213  0.96763446     0.98300
C1255       C  0.38752277  0.83221391  0.96943866     1.05800
O1256       O  0.39938695  0.79310649  0.93197121    -1.11400
O1257       O  0.34980552  0.74792956  0.92565946    -0.73800
O1258       O  0.35816140  0.75776348  0.97362613    -0.77300
O1259       O  0.44877325  0.83824409  0.94140151    -0.78000
C1260       C  0.34274189  0.74575299  0.95258360     0.97300
O1261       O  0.40906055  0.76156454  0.97443416    -0.76000
O1262       O  0.37086297  0.78034215  0.87599250    -0.81200
C1263       C  0.43500476  0.79923866  0.87327685     0.99900
C1264       C  0.37190832  0.80145234  0.87314734     1.05800
O1265       O  0.43577837  0.81953134  0.88155755    -0.76800
C1266       C  0.40625656  0.74525486  0.95505637     1.04100
Fe1267     Fe  0.20826676  0.60170690  0.97636625     1.65800
Fe1268     Fe  0.23107755  0.61308048  0.90512801     1.73200
Fe1269     Fe  0.16658798  0.57992104  0.91643391     1.54400
O1270       O  0.15478311  0.55029563  0.94644784    -0.80500
O1271       O  0.21624588  0.63064909  0.88061012    -0.78800
O1272       O  0.18275349  0.56379161  0.98384105    -0.83000
O1273       O  0.18038646  0.61075462  0.98425007    -0.77900
O1274       O  0.17406915  0.55838689  0.88629778    -0.79700
O1275       O  0.25039876  0.64613443  0.92857885    -0.82400
C1276       C  0.16168765  0.60932887  0.96999632     0.98300
C1277       C  0.16289441  0.54659932  0.97090284     1.05800
O1278       O  0.20190416  0.59817170  0.93270853    -1.11400
O1279       O  0.24924955  0.59730534  0.92681841    -0.73800
O1280       O  0.23726104  0.59317559  0.97440354    -0.77300
O1281       O  0.15494798  0.59909284  0.94445952    -0.78000
C1282       C  0.25069188  0.59175790  0.95359520     0.97300
O1283       O  0.23469467  0.64032254  0.97456400    -0.76000
O1284       O  0.21592918  0.58215318  0.87771907    -0.81200
C1285       C  0.19409930  0.62622249  0.87399568     0.99900
C1286       C  0.19442860  0.56251497  0.87319346     1.05800
O1287       O  0.17375887  0.60743872  0.88428237    -0.76800
C1288       C  0.24983916  0.65433276  0.95426891     1.04100
Fe1289     Fe  0.27143582  0.53968283  0.68351638     1.65800
Fe1290     Fe  0.28430118  0.56387174  0.75301400     1.73200
Fe1291     Fe  0.25151779  0.00013731  0.74463901     1.54400
O1292       O  0.22385328  0.98647366  0.71158601    -0.80500
O1293       O  0.30551371  0.55123676  0.77418338    -0.78800
O1294       O  0.23261860  0.51720217  0.67982934    -0.83000
O1295       O  0.27696657  0.50931234  0.67577087    -0.77900
O1296       O  0.22751405  0.00781444  0.76993551    -0.79700
O1297       O  0.31547728  0.58449818  0.72568087    -0.82400
C1298       C  0.28034220  0.99339223  0.69342347     0.98300
C1299       C  0.21874203  0.99666395  0.69014071     1.05800
O1300       O  0.26912749  0.53452782  0.72686929    -1.11400
O1301       O  0.26425502  0.57854809  0.73334133    -0.73800
O1302       O  0.26643445  0.57098047  0.68522368    -0.77300
O1303       O  0.27376277  0.98987122  0.72064634    -0.78000
C1304       C  0.26188951  0.58223872  0.70609691     0.97300
O1305       O  0.31069239  0.56318683  0.68359791    -0.76000
O1306       O  0.25529298  0.54773622  0.78433907    -0.81200
C1307       C  0.29917744  0.52969245  0.78489244     0.99900
C1308       C  0.23391219  0.52728417  0.78651532     1.05800
O1309       O  0.27686685  0.00890224  0.78019519    -0.76800
C1310       C  0.32409512  0.58127829  0.70131121     1.04100
Fe1311     Fe  0.28269360  0.71374693  0.75651488     1.65800
Fe1312     Fe  0.27269098  0.72600138  0.68542713     1.73200
Fe1313     Fe  0.25127887  0.74599338  0.74549575     1.54400
O1314       O  0.23079350  0.71848358  0.77779541    -0.80500
O1315       O  0.28480150  0.76354170  0.67854603    -0.78800
O1316       O  0.24947433  0.69521441  0.78043031    -0.83000
O1317       O  0.29818284  0.74461537  0.78427465    -0.77900
O1318       O  0.22053606  0.72616234  0.71763853    -0.79700
O1319       O  0.31085965  0.73595731  0.68783522    -0.82400
C1320       C  0.29665399  0.76430128  0.78824404     0.98300
C1321       C  0.23185355  0.69955201  0.78749950     1.05800
O1322       O  0.26887309  0.72861261  0.72906010    -1.11400
O1323       O  0.26117141  0.68786744  0.68622058    -0.73800
O1324       O  0.26939064  0.68103938  0.73242154    -0.77300
O1325       O  0.28046265  0.76811976  0.77506565    -0.78000
C1326       C  0.26184871  0.67360931  0.70614576     0.97300
O1327       O  0.31732929  0.73035271  0.73527954    -0.76000
O1328       O  0.23519186  0.71574987  0.67758224    -0.81200
C1329       C  0.28133594  0.77997731  0.69148685     0.99900
C1330       C  0.21740452  0.71626355  0.69199179     1.05800
O1331       O  0.26891358  0.77563591  0.71566731    -0.76800
C1332       C  0.32529808  0.73703018  0.70887695     1.04100
C1333       C  0.26933358  0.62032883  0.67735556     0.24700
C1334       C  0.25533502  0.60179260  0.69907721    -0.23400
C1335       C  0.23886011  0.60510895  0.71819688     0.19600
C1336       C  0.23883159  0.62787554  0.71822301     0.24700
C1337       C  0.25502537  0.64752886  0.69887744    -0.23300
C1338       C  0.26918180  0.64316480  0.67729026     0.19600
F1339       F  0.28530578  0.66213095  0.65873291    -0.13300
F1340       F  0.28551382  0.61771627  0.65868383    -0.15600
F1341       F  0.22467382  0.63159213  0.73891209    -0.15600
F1342       F  0.22433701  0.58710541  0.73854319    -0.13300
C1343       C  0.18816745  0.63710567  0.82269173     0.24700
C1344       C  0.19303559  0.64396306  0.85281385    -0.23400
C1345       C  0.20470539  0.66973318  0.86074883     0.19600
C1346       C  0.21449439  0.68854751  0.83875812     0.24700
C1347       C  0.21263816  0.68167948  0.80866249    -0.23300
C1348       C  0.19796481  0.65592285  0.80069311     0.19600
F1349       F  0.19563249  0.64898501  0.77162097    -0.13300
F1350       F  0.17700353  0.61235135  0.81450349    -0.15600
F1351       F  0.22871700  0.71329408  0.84695853    -0.15600
F1352       F  0.20920640  0.67667876  0.88982178    -0.13300
C1353       C  0.19116045  0.54768255  0.82119569     0.24700
C1354       C  0.19429240  0.54439960  0.85149162    -0.23400
C1355       C  0.20557078  0.53008046  0.85959505     0.19600
C1356       C  0.21624423  0.52172287  0.83782637     0.24700
C1357       C  0.21533282  0.52724880  0.80771936    -0.23300
C1358       C  0.20143150  0.53892218  0.79942397     0.19600
F1359       F  0.20009659  0.54410760  0.77036680    -0.13300
F1360       F  0.18093842  0.56199533  0.81284659    -0.15600
F1361       F  0.22970036  0.51058095  0.84633190    -0.15600
F1362       F  0.20875595  0.52669765  0.88878007    -0.13300
C1363       C  0.27397514  0.69900613  0.93751915     0.24700
C1364       C  0.26873238  0.68116194  0.96011376    -0.23400
C1365       C  0.28550423  0.68796988  0.98441140     0.19600
C1366       C  0.30894733  0.71093196  0.98392185     0.24700
C1367       C  0.31567346  0.72708868  0.95906015    -0.23300
C1368       C  0.29718285  0.72184600  0.93707254     0.19600
F1369       F  0.30251590  0.73777880  0.91363283    -0.13300
F1370       F  0.25767093  0.69323642  0.91427890    -0.15600
F1371       F  0.32615588  0.71580408  0.00590202    -0.15600
F1372       F  0.28073359  0.67112635  0.00664664    -0.13300
C1373       C  0.34119711  0.79633974  0.80013849     0.24700
C1374       C  0.31534746  0.78325583  0.80878587    -0.23400
C1375       C  0.30898862  0.78247071  0.83897539     0.19600
C1376       C  0.32830830  0.79201583  0.86051663     0.24700
C1377       C  0.35398585  0.80215635  0.85193893    -0.23300
C1378       C  0.36046219  0.80558176  0.82164170     0.19600
F1379       F  0.38513875  0.81503514  0.81297133    -0.13300
F1380       F  0.34761593  0.79747024  0.77096679    -0.15600
F1381       F  0.32179173  0.78867822  0.88979620    -0.15600
F1382       F  0.28410465  0.76974021  0.84774788    -0.13300
C1383       C  0.35682436  0.61729378  0.67086307     0.24700
C1384       C  0.35083564  0.59991633  0.69424685    -0.23400
C1385       C  0.36949149  0.60438898  0.71555780     0.19600
C1386       C  0.39268424  0.62721500  0.71567763     0.24700
C1387       C  0.39745486  0.64607756  0.69465674    -0.23300
C1388       C  0.38017588  0.64040002  0.67103535     0.19600
F1389       F  0.38439623  0.65831999  0.65040434    -0.13300
F1390       F  0.33893469  0.61332259  0.65010925    -0.15600
F1391       F  0.40941304  0.63196683  0.73819938    -0.15600
F1392       F  0.36413232  0.58774504  0.73815630    -0.13300
C1393       C  0.38220553  0.73632050  0.67634443     0.24700
C1394       C  0.39839344  0.74450661  0.70130206    -0.23400
C1395       C  0.39310787  0.75619393  0.72501927     0.19600
C1396       C  0.37026352  0.75633275  0.72584037     0.24700
C1397       C  0.35226112  0.74484713  0.70289299    -0.23300
C1398       C  0.35914716  0.73648570  0.67713244     0.19600
F1399       F  0.34237858  0.72577338  0.65430287    -0.13300
F1400       F  0.38714175  0.72545252  0.65282633    -0.15600
F1401       F  0.36474051  0.76562006  0.75044614    -0.15600
F1402       F  0.40894923  0.76530120  0.74886966    -0.13300
C1403       C  0.47695585  0.77859849  0.83788647     0.24700
C1404       C  0.47211905  0.78049526  0.80780530    -0.23400
C1405       C  0.46095130  0.79490290  0.79974501     0.19600
C1406       C  0.45165019  0.80448388  0.82168781     0.24700
C1407       C  0.45368908  0.79985730  0.85184349    -0.23300
C1408       C  0.46788602  0.78837461  0.85982204     0.19600
F1409       F  0.47054334  0.78426460  0.88892383    -0.13300
F1410       F  0.48777030  0.76478854  0.84609562    -0.15600
F1411       F  0.43781150  0.81528724  0.81343857    -0.15600
F1412       F  0.45673741  0.79740394  0.77063283    -0.13300
C1413       C  0.29691178  0.56919402  0.94114897     0.24700
C1414       C  0.31623577  0.58460299  0.96137319    -0.23400
C1415       C  0.31136375  0.59812653  0.98319610     0.19600
C1416       C  0.28836861  0.59829660  0.98277161     0.24700
C1417       C  0.27018801  0.58500764  0.96044376    -0.23300
C1418       C  0.27401115  0.56936966  0.94069496     0.19600
F1419       F  0.25640428  0.55583536  0.91944058    -0.13300
F1420       F  0.30111140  0.55563356  0.92023894    -0.15600
F1421       F  0.28532168  0.61392065  0.00171258    -0.15600
F1422       F  0.33006826  0.61367718  0.00241462    -0.13300
C1423       C  0.32695961  0.53085154  0.85924600     0.24700
C1424       C  0.35318707  0.54528491  0.85245400    -0.23400
C1425       C  0.36110388  0.54862607  0.82263215     0.19600
C1426       C  0.34293941  0.54050816  0.79988805     0.24700
C1427       C  0.31674312  0.52892271  0.80680131    -0.23300
C1428       C  0.30875852  0.52257850  0.83647484     0.19600
F1429       F  0.28210624  0.01341011  0.84654929    -0.13300
F1430       F  0.31902853  0.52730576  0.88804054    -0.15600
F1431       F  0.35097988  0.54605162  0.77122781    -0.15600
F1432       F  0.38635707  0.56264486  0.81564386    -0.13300
C1433       C  0.42815985  0.69931257  0.93949106     0.24700
C1434       C  0.41518093  0.68119902  0.96192335    -0.23400
C1435       C  0.40512017  0.68773580  0.98641555     0.19600
C1436       C  0.40473809  0.71052165  0.98609722     0.24700
C1437       C  0.41433964  0.72671452  0.96128133    -0.23300
C1438       C  0.42747388  0.72171907  0.93899893     0.19600
F1439       F  0.43767507  0.73749570  0.91528974    -0.13300
F1440       F  0.43937558  0.69418342  0.91641933    -0.15600
F1441       F  0.39236600  0.71523115  0.00818745    -0.15600
F1442       F  0.39305374  0.67090085  0.00881133    -0.13300
C1443       C  0.46874909  0.67057951  0.85892082     0.24700
C1444       C  0.45419386  0.64455380  0.85220249    -0.23400
C1445       C  0.45174820  0.63675653  0.82237379     0.19600
C1446       C  0.46089998  0.65483370  0.79948226     0.24700
C1447       C  0.47279501  0.68087063  0.80621306    -0.23300
C1448       C  0.47811612  0.68865554  0.83604395     0.19600
F1449       F  0.48934095  0.71365264  0.84311207    -0.13300
F1450       F  0.47148921  0.67850455  0.88763058    -0.15600
F1451       F  0.45580869  0.64689026  0.77076386    -0.15600
F1452       F  0.43778010  0.61172680  0.81533721    -0.13300
C1453       C  0.35435816  0.97538339  0.97881809     0.24700
C1454       C  0.35244532  0.97220320  0.00997130    -0.23400
C1455       C  0.36255175  0.99395505  0.02819810     0.19600
C1456       C  0.37495491  0.51860537  0.01545509     0.24700
C1457       C  0.37536122  0.52152576  0.98431962    -0.23300
C1458       C  0.36481711  0.49977151  0.96615120     0.19600
F1459       F  0.36499746  0.50181555  0.93604156    -0.13300
F1460       F  0.34538517  0.95500674  0.96037854    -0.15600
F1461       F  0.38573341  0.53921324  0.03362473    -0.15600
F1462       F  0.36108261  0.99180879  0.05832144    -0.13300
C1463       C  0.37757638  0.88356143  0.00292314     0.24700
C1464       C  0.35124022  0.86969519  0.00931722    -0.23400
C1465       C  0.33707252  0.84374577  0.00216403     0.19600
C1466       C  0.34905713  0.83172577  0.98922402     0.24700
C1467       C  0.37531682  0.84554017  0.98255066    -0.23300
C1468       C  0.38950375  0.87160770  0.98920195     0.19600
F1469       F  0.41492711  0.88529552  0.98301714    -0.13300
F1470       F  0.39151216  0.90874645  0.00916723    -0.15600
F1471       F  0.33486130  0.80661217  0.98257658    -0.15600
F1472       F  0.31159580  0.82991252  0.00811856    -0.13300
C1473       C  0.29560137  0.82260408  0.13333557     0.24700
C1474       C  0.30592324  0.84843683  0.14031301    -0.23400
C1475       C  0.30975189  0.85598683  0.17025774     0.19600
C1476       C  0.30078671  0.83776704  0.19288598     0.24700
C1477       C  0.28767347  0.81176300  0.18588068    -0.23300
C1478       C  0.28657193  0.80431133  0.15605532     0.19600
F1479       F  0.27398623  0.77930463  0.14872609    -0.13300
F1480       F  0.29187900  0.81492574  0.10448216    -0.15600
F1481       F  0.30231241  0.84535647  0.22160815    -0.15600
F1482       F  0.31933315  0.88074965  0.17753487    -0.13300
C1483       C  0.02124814  0.64427264  0.98091777     0.24700
C1484       C  0.02378250  0.64653066  0.01206588    -0.23400
C1485       C  0.00172238  0.63647123  0.02997977     0.19600
C1486       C  0.47760545  0.62485341  0.01698774     0.24700
C1487       C  0.47509707  0.62263064  0.98579651    -0.23300
C1488       C  0.49715215  0.63229462  0.96796033     0.19600
F1489       F  0.49546518  0.63111171  0.93779605    -0.13300
F1490       F  0.04216496  0.65354727  0.96297954    -0.15600
F1491       F  0.45666215  0.61558726  0.03489078    -0.15600
F1492       F  0.00354040  0.63885436  0.06007908    -0.13300
C1493       C  0.13890788  0.63365577  0.96614283     0.24700
C1494       C  0.14750684  0.62052760  0.98372816    -0.23400
C1495       C  0.14342834  0.61916158  0.01470577     0.19600
C1496       C  0.13127272  0.63102260  0.02792182     0.24700
C1497       C  0.12338937  0.64488779  0.01043966    -0.23300
C1498       C  0.12706310  0.64577465  0.97933031     0.19600
F1499       F  0.11928810  0.65849723  0.96152284    -0.13300
F1500       F  0.14300385  0.63575873  0.93627021    -0.15600
F1501       F  0.12810754  0.62969368  0.05793207    -0.15600
F1502       F  0.15123270  0.60631626  0.03224627    -0.13300
C1503       C  0.19131825  0.78195771  0.00590461     0.24700
C1504       C  0.18498456  0.76540370  0.03027688    -0.23400
C1505       C  0.20366266  0.77024191  0.05175542     0.19600
C1506       C  0.22691516  0.79297864  0.05134014     0.24700
C1507       C  0.23173977  0.81139848  0.02961248    -0.23300
C1508       C  0.21470178  0.80499358  0.00558137     0.19600
F1509       F  0.21914915  0.82217631  0.98387464    -0.13300
F1510       F  0.17371914  0.77741803  0.98452211    -0.15600
F1511       F  0.24361869  0.79809954  0.07400459    -0.15600
F1512       F  0.19836980  0.75407394  0.07489338    -0.13300
C1513       C  0.15917942  0.69793692  0.19446041     0.24700
C1514       C  0.18529128  0.71200526  0.18698059    -0.23400
C1515       C  0.19266025  0.71429419  0.15699928     0.19600
C1516       C  0.17407604  0.70513563  0.13464586     0.24700
C1517       C  0.14802949  0.69368317  0.14210274    -0.23300
C1518       C  0.14058512  0.68880694  0.17208560     0.19600
F1519       F  0.11550794  0.67796364  0.17972975    -0.13300
F1520       F  0.15174546  0.69538455  0.22339245    -0.15600
F1521       F  0.18154283  0.70976929  0.10572281    -0.15600
F1522       F  0.21777207  0.72814331  0.14932883    -0.13300
C1523       C  0.10938216  0.73939945  0.27381455     0.24700
C1524       C  0.10567864  0.75515761  0.29350864    -0.23400
C1525       C  0.12351667  0.76771413  0.31646408     0.19600
C1526       C  0.14609671  0.76672633  0.31750520     0.24700
C1527       C  0.15093173  0.75320374  0.29563116    -0.23300
C1528       C  0.13183812  0.73848916  0.27484547     0.19600
F1529       F  0.13598318  0.72502466  0.25375983    -0.13300
F1530       F  0.09210671  0.72633602  0.25207727    -0.15600
F1531       F  0.16448888  0.78143695  0.33749583    -0.15600
F1532       F  0.12054656  0.78319474  0.33572208    -0.13300
C1533       C  0.03488363  0.70746481  0.13354594     0.24700
C1534       C  0.04821025  0.69508293  0.14142458    -0.23400
C1535       C  0.04953938  0.68976033  0.17154717     0.19600
C1536       C  0.04028895  0.69935756  0.19362142     0.24700
C1537       C  0.02973130  0.71435777  0.18570533    -0.23300
C1538       C  0.02585991  0.71721403  0.15555456     0.19600
F1539       F  0.51629423  0.73223748  0.14735170    -0.13300
F1540       F  0.03284276  0.71223312  0.10451173    -0.15600
F1541       F  0.04408973  0.69633118  0.22272064    -0.15600
F1542       F  0.06245184  0.67796959  0.17971184    -0.13300
C1543       C  0.00481986  0.85944727  0.02485479     0.24700
C1544       C  0.02670466  0.87109123  0.00662943    -0.23400
C1545       C  0.02380256  0.87058406  0.97554423     0.19600
C1546       C  0.99945799  0.85835858  0.96289199     0.24700
C1547       C  0.47747472  0.84626703  0.98097564    -0.23300
C1548       C  0.48048694  0.84696275  0.01209966     0.19600
F1549       F  0.45986833  0.83580275  0.03053056    -0.13300
F1550       F  0.00694283  0.85917212  0.05492104    -0.15600
F1551       F  0.99751110  0.85776095  0.93274824    -0.17400
F1552       F  0.04454815  0.88204737  0.95730937    -0.13300
C1553       C  0.14966313  0.51825086  0.01591605     0.24700
C1554       C  0.14883303  0.52109395  0.98484495    -0.23400
C1555       C  0.13503193  0.49922159  0.96716790     0.19600
C1556       C  0.12922113  0.97508591  0.97550984     0.24700
C1557       C  0.12810351  0.97192367  0.00662959    -0.23300
C1558       C  0.13812348  0.99351023  0.02500430     0.19600
F1559       F  0.13779193  0.99119973  0.05508736    -0.13300
F1560       F  0.16232477  0.53886057  0.03385567    -0.15600
F1561       F  0.11947235  0.95464697  0.95708964    -0.15600
F1562       F  0.13374712  0.50106729  0.93717853    -0.13300
C1563       C  0.09796067  0.80560381  0.00284301     0.24700
C1564       C  0.08727867  0.81232714  0.02646748    -0.23400
C1565       C  0.07360933  0.79446327  0.04884102     0.19600
C1566       C  0.07367974  0.77178612  0.04999776     0.24700
C1567       C  0.08722280  0.76644421  0.02863654    -0.23300
C1568       C  0.09786520  0.78259377  0.00388791     0.19600
F1569       F  0.11086846  0.77767578  0.98279699    -0.13300
F1570       F  0.11119467  0.82252178  0.98089930    -0.15600
F1571       F  0.06266164  0.75619298  0.07368443    -0.15600
F1572       F  0.06258926  0.80025052  0.07150472    -0.13300
C1573       C  0.05020768  0.85601384  0.16691477     0.24700
C1574       C  0.04859437  0.84742237  0.13756806    -0.23400
C1575       C  0.03452671  0.82117906  0.13184573     0.19600
C1576       C  0.02498117  0.80374707  0.15540880     0.24700
C1577       C  0.02971109  0.81240466  0.18497552    -0.23300
C1578       C  0.04096768  0.83860800  0.19049958     0.19600
F1579       F  0.04525713  0.84743838  0.21888808    -0.13300
F1580       F  0.06353257  0.88125443  0.17301235    -0.15600
F1581       F  0.51411209  0.77862049  0.14963306    -0.15600
F1582       F  0.03207304  0.81246568  0.10353942    -0.13300
C1583       C  0.19283608  0.89992603  0.00429845     0.24700
C1584       C  0.18664284  0.91024472  0.02878756    -0.23400
C1585       C  0.20516274  0.92341989  0.05077147     0.19600
C1586       C  0.22794701  0.92315416  0.05060112     0.24700
C1587       C  0.23264648  0.90984763  0.02840779    -0.23300
C1588       C  0.21586227  0.89972270  0.00413393     0.19600
F1589       F  0.22018456  0.88692928  0.98231382    -0.13300
F1590       F  0.17538942  0.88732050  0.98255577    -0.15600
F1591       F  0.24430338  0.93372303  0.07378372    -0.15600
F1592       F  0.20013011  0.93443314  0.07404615    -0.13300
C1593       C  0.23636716  0.87579641  0.32191397     0.24700
C1594       C  0.24626176  0.89283221  0.29792448    -0.23400
C1595       C  0.25999380  0.88889787  0.27543189     0.19600
C1596       C  0.26130088  0.86684645  0.27495001     0.24700
C1597       C  0.24861181  0.84816465  0.29681992    -0.23300
C1598       C  0.23757971  0.85346571  0.32139967     0.19600
F1599       F  0.22520337  0.83572618  0.34286170    -0.13300
F1600       F  0.22287233  0.87917818  0.34379275    -0.15600
F1601       F  0.27273194  0.86257552  0.25141135    -0.15600
F1602       F  0.26990012  0.90523443  0.25220235    -0.13300
C1603       C  0.29129699  0.95997097  0.13374570     0.24700
C1604       C  0.30326939  0.94602998  0.14061656    -0.23400
C1605       C  0.30808851  0.94338858  0.17053450     0.19600
C1606       C  0.29833972  0.95190247  0.19323782     0.24700
C1607       C  0.28359445  0.96301996  0.18628152    -0.23300
C1608       C  0.28144916  0.96837823  0.15643631     0.19600
F1609       F  0.26727992  0.97904327  0.14910802    -0.13300
F1610       F  0.28708489  0.96335421  0.10493919    -0.15600
F1611       F  0.30148846  0.94745870  0.22203218    -0.15600
F1612       F  0.31953630  0.92996461  0.17779534    -0.13300
C1613       C  0.11810377  0.85419978  0.32205476     0.24700
C1614       C  0.10055469  0.84849881  0.29887127    -0.23400
C1615       C  0.10513472  0.86698415  0.27748613     0.19600
C1616       C  0.12851513  0.88961069  0.27687100     0.24700
C1617       C  0.14764420  0.89388847  0.29755238    -0.23300
C1618       C  0.14166469  0.87693565  0.32145421     0.19600
F1619       F  0.15973904  0.88065863  0.34182539    -0.13300
F1620       F  0.11395062  0.83637995  0.34279632    -0.15600
F1621       F  0.13342390  0.90613722  0.25423489    -0.15600
F1622       F  0.08811620  0.86186624  0.25520336    -0.13300
C1623       C  0.15919375  0.95394151  0.19207160     0.24700
C1624       C  0.18543183  0.96553966  0.18543951    -0.23400
C1625       C  0.19343861  0.97000288  0.15561845     0.19600
C1626       C  0.17534853  0.96066156  0.13271481     0.24700
C1627       C  0.14910454  0.94663267  0.13939925    -0.23300
C1628       C  0.14107006  0.94441192  0.16914127     0.19600
F1629       F  0.11580436  0.93051733  0.17610156    -0.13300
F1630       F  0.15111110  0.94952189  0.22079754    -0.15600
F1631       F  0.18341699  0.96299327  0.10406738    -0.15600
F1632       F  0.21864474  0.98071732  0.14872944    -0.13300
C1633       C  0.31192210  0.85099410  0.68303094     0.24700
C1634       C  0.31549919  0.85396337  0.65204054    -0.23400
C1635       C  0.30693859  0.83241333  0.63392939     0.19600
C1636       C  0.29567941  0.80828994  0.64672296     0.24700
C1637       C  0.29242949  0.80532758  0.67782520    -0.23300
C1638       C  0.30040566  0.82690577  0.69580547     0.19600
F1639       F  0.29801017  0.82483701  0.72589339    -0.13300
F1640       F  0.31966507  0.87149382  0.70102507    -0.15600
F1641       F  0.28799600  0.78785156  0.62864718    -0.15600
F1642       F  0.31049368  0.83477964  0.60397917    -0.13300
C1643       C  0.31718582  0.95905975  0.68486861     0.24700
C1644       C  0.31500848  0.95382980  0.65403105    -0.23400
C1645       C  0.30008070  0.96056579  0.63664007     0.19600
C1646       C  0.28844035  0.97302150  0.64954997     0.24700
C1647       C  0.29128958  0.97884490  0.68013403    -0.23300
C1648       C  0.30546502  0.97139954  0.69772062     0.19600
F1649       F  0.30890847  0.97695629  0.72724651    -0.13300
F1650       F  0.33087156  0.95246278  0.70278741    -0.15600
F1651       F  0.27432343  0.97936226  0.63204595    -0.15600
F1652       F  0.29730906  0.95584672  0.60692874    -0.13300
C1653       C  0.33689050  0.80125151  0.36139860     0.24700
C1654       C  0.35892261  0.81346619  0.34340309    -0.23400
C1655       C  0.35613712  0.81243772  0.31219027     0.19600
C1656       C  0.33186452  0.80024297  0.29933615     0.24700
C1657       C  0.30987814  0.78887388  0.31738428    -0.23300
C1658       C  0.31260350  0.78918913  0.34850366     0.19600
F1659       F  0.29171397  0.77779887  0.36651303    -0.13300
F1660       F  0.33874220  0.80172836  0.39153693    -0.15600
F1661       F  0.32991519  0.80051546  0.26923875    -0.15600
F1662       F  0.37692098  0.82333015  0.29397319    -0.13300
C1663       C  0.46899891  0.80229315  0.36129309     0.24700
C1664       C  0.45858149  0.81359343  0.34338772    -0.23400
C1665       C  0.45880717  0.81110913  0.31226550     0.19600
C1666       C  0.46989797  0.79823355  0.29922169     0.24700
C1667       C  0.48118815  0.78762359  0.31701315    -0.23300
C1668       C  0.48027287  0.78951780  0.34828698     0.19600
F1669       F  0.49054215  0.77929284  0.36643020    -0.13300
F1670       F  0.46925259  0.80449762  0.39140285    -0.15600
F1671       F  0.47027788  0.79698743  0.26904747    -0.15600
F1672       F  0.44821606  0.82115339  0.29433159    -0.13300
C1673       C  0.37090390  0.87713049  0.46781749     0.24700
C1674       C  0.38475414  0.86494665  0.47397056    -0.23400
C1675       C  0.38622868  0.85826443  0.50347527     0.19600
C1676       C  0.37664344  0.86639759  0.52677260     0.24700
C1677       C  0.36527469  0.88102497  0.52073967    -0.23300
C1678       C  0.36113196  0.88504770  0.49106117     0.19600
F1679       F  0.35026594  0.89917534  0.48470704    -0.13300
F1680       F  0.36868194  0.88317362  0.43940080    -0.15600
F1681       F  0.38058934  0.86208731  0.55534526    -0.15600
F1682       F  0.39948455  0.84646320  0.50997665    -0.13300
C1683       C  0.20762125  0.68638417  0.35006866     0.24700
C1684       C  0.20867630  0.68904211  0.31884851    -0.23400
C1685       C  0.19863355  0.66716687  0.30097286     0.19600
C1686       C  0.18735783  0.64313581  0.31397538     0.24700
C1687       C  0.18612593  0.64043315  0.34515498    -0.23300
C1688       C  0.19660697  0.66230245  0.36309284     0.19600
F1689       F  0.19530078  0.66035282  0.39323710    -0.13300
F1690       F  0.21738912  0.70710717  0.36803968    -0.15600
F1691       F  0.17763119  0.62243909  0.29596352    -0.15600
F1692       F  0.19889256  0.66893999  0.27082911    -0.13300
C1693       C  0.18962905  0.53960754  0.31397927     0.24700
C1694       C  0.18789370  0.54058158  0.34519669    -0.23400
C1695       C  0.19823370  0.52913604  0.36304429     0.19600
C1696       C  0.20932879  0.51626416  0.34991951     0.24700
C1697       C  0.21056682  0.51486714  0.31872744    -0.23300
C1698       C  0.20094587  0.52695776  0.30089117     0.19600
F1699       F  0.20148830  0.52562440  0.27073304    -0.13300
F1700       F  0.18021490  0.55078327  0.29602395    -0.15600
F1701       F  0.21887689  0.50515123  0.36776351    -0.15600
F1702       F  0.19665069  0.52943768  0.39319322    -0.13300
C1703       C  0.03948552  0.93863406  0.37781913     0.24700
C1704       C  0.01963724  0.93514033  0.35880789    -0.23400
C1705       C  0.02463652  0.95317801  0.33648125     0.19600
C1706       C  0.04815064  0.97603480  0.33598805     0.24700
C1707       C  0.06669794  0.98074534  0.35765722    -0.23300
C1708       C  0.06288424  0.96130627  0.37723631     0.19600
F1709       F  0.08083540  0.96539222  0.39793931    -0.13300
F1710       F  0.03536257  0.92107295  0.39884235    -0.15600
F1711       F  0.05145298  0.99473045  0.31702515    -0.15600
F1712       F  0.50572959  0.95011352  0.31784983    -0.13300
C1713       C  0.02018735  0.80955277  0.64639940     0.24700
C1714       C  0.01796810  0.80616559  0.67745348    -0.23400
C1715       C  0.02776209  0.82756348  0.69605880     0.19600
C1716       C  0.03940319  0.85192374  0.68384416     0.24700
C1717       C  0.04170393  0.85539314  0.65270477    -0.23300
C1718       C  0.03198675  0.83389222  0.63414143     0.19600
F1719       F  0.03307697  0.83628854  0.60404436    -0.13300
F1720       F  0.01096402  0.78924547  0.62781374    -0.15600
F1721       F  0.04835380  0.87208528  0.70261945    -0.15600
F1722       F  0.02513746  0.82487940  0.72608893    -0.13300
C1723       C  0.15931658  0.94821780  0.64998141     0.24700
C1724       C  0.14334937  0.95856266  0.65375807    -0.23400
C1725       C  0.15254318  0.98141173  0.66978553     0.19600
C1726       C  0.17722454  0.99376679  0.68142428     0.24700
C1727       C  0.19294821  0.98333675  0.67774930    -0.23300
C1728       C  0.18392660  0.96046366  0.66218667     0.19600
F1729       F  0.19914591  0.95032572  0.65834221    -0.13300
F1730       F  0.15098300  0.92609291  0.63498068    -0.15600
F1731       F  0.18691696  0.51874723  0.68934425    -0.15600
F1732       F  0.13788378  0.99217671  0.67364513    -0.13300
C1733       C  0.47628699  0.92678221  0.65974743     0.24700
C1734       C  0.48274109  0.91627441  0.63575269    -0.23400
C1735       C  0.46446792  0.90269232  0.61372341     0.19600
C1736       C  0.44146416  0.90256187  0.61336398     0.24700
C1737       C  0.43643962  0.91610021  0.63500033    -0.23300
C1738       C  0.45309109  0.92667097  0.65939769     0.19600
F1739       F  0.44850928  0.93962374  0.68077306    -0.13300
F1740       F  0.99374148  0.94002075  0.68136610    -0.15600
F1741       F  0.42521768  0.89135874  0.59018275    -0.15600
F1742       F  0.47006164  0.89177823  0.59081218    -0.13300
C1743       C  0.13464864  0.50564796  0.52887232     0.24700
C1744       C  0.11886749  0.97979820  0.52219439    -0.23400
C1745       C  0.11617272  0.97116398  0.49272786     0.19600
C1746       C  0.12523585  0.98852411  0.46911738     0.24700
C1747       C  0.13913329  0.51614959  0.47618982    -0.23300
C1748       C  0.14432171  0.52382609  0.50608113     0.19600
F1749       F  0.15585712  0.54882624  0.51325628    -0.13300
F1750       F  0.13740349  0.51345355  0.55762572    -0.15600
F1751       F  0.12010896  0.97965603  0.44075583    -0.15600
F1752       F  0.10226324  0.94594993  0.48668696    -0.13300
C1753       C  0.02783558  0.88636964  0.49211349     0.24700
C1754       C  0.01916737  0.88212240  0.52169867    -0.23400
C1755       C  0.49277785  0.86653774  0.52752411     0.19600
C1756       C  0.47516878  0.85775896  0.50403373     0.24700
C1757       C  0.48377548  0.86464050  0.47461701    -0.23300
C1758       C  0.01024494  0.87782664  0.46868477     0.19600
F1759       F  0.01891571  0.88430753  0.44036173    -0.13300
F1760       F  0.05313708  0.90140942  0.48599647    -0.15600
F1761       F  0.44972504  0.84507808  0.51022521    -0.15600
F1762       F  0.48404611  0.86191007  0.55600268    -0.13300
C1763       C  0.16486192  0.69241407  0.63436899     0.24700
C1764       C  0.14284323  0.67998295  0.65230988    -0.23400
C1765       C  0.14551805  0.68028407  0.68344878     0.19600
C1766       C  0.16975988  0.69256205  0.69637578     0.24700
C1767       C  0.19180511  0.70448775  0.67839621    -0.23300
C1768       C  0.18913521  0.70445033  0.64728729     0.19600
F1769       F  0.21003258  0.71619551  0.62933214    -0.13300
F1770       F  0.16295410  0.69211974  0.60424192    -0.15600
F1771       F  0.17163643  0.69199979  0.72645852    -0.15600
F1772       F  0.12463907  0.66873039  0.70146846    -0.13300
C1773       C  0.04265238  0.68402080  0.68042009     0.24700
C1774       C  0.04319053  0.68150313  0.64931404    -0.23400
C1775       C  0.03210709  0.69199837  0.63107162     0.19600
C1776       C  0.01992961  0.70398021  0.64374948     0.24700
C1777       C  0.01877217  0.70585083  0.67488968    -0.23300
C1778       C  0.03061716  0.69610084  0.69306991     0.19600
F1779       F  0.02977644  0.69738510  0.72321164    -0.13300
F1780       F  0.05377843  0.67476296  0.69872565    -0.15600
F1781       F  0.00929860  0.71377343  0.62549455    -0.15600
F1782       F  0.03220745  0.68988631  0.60097352    -0.13300
C1783       C  0.45351972  0.52030829  0.65785111     0.24700
C1784       C  0.43585953  0.51420777  0.63459671    -0.23400
C1785       C  0.44038236  0.53263892  0.61305603     0.19600
C1786       C  0.46375092  0.55525819  0.61208326     0.24700
C1787       C  0.48274724  0.56009172  0.63307042    -0.23300
C1788       C  0.47696619  0.54331638  0.65711779     0.19600
F1789       F  0.99518792  0.54770992  0.67761630    -0.13300
F1790       F  0.44812336  0.00327308  0.68205877    -0.15600
F1791       F  0.46877054  0.57133640  0.58892061    -0.15600
F1792       F  0.42324673  0.52745431  0.59090594    -0.13300
C1793       C  0.06831587  0.54322015  0.65531273     0.24700
C1794       C  0.08069552  0.56073478  0.63215231    -0.23400
C1795       C  0.09652871  0.55712721  0.61236337     0.19600
C1796       C  0.09712783  0.53469508  0.61303291     0.24700
C1797       C  0.08153507  0.51536759  0.63317164    -0.23300
C1798       C  0.06873196  0.52052704  0.65583345     0.19600
F1799       F  0.05366143  0.00151046  0.67928785    -0.13300
F1800       F  0.05320189  0.54650226  0.67502126    -0.15600
F1801       F  0.11094752  0.53081985  0.59203598    -0.15600
F1802       F  0.10955213  0.57429621  0.59058522    -0.13300
C1803       C  0.11756026  0.63805002  0.49084826     0.24700
C1804       C  0.11972866  0.63327870  0.52089107    -0.23400
C1805       C  0.13435717  0.62225573  0.52867298     0.19600
C1806       C  0.14409641  0.61330649  0.50650197     0.24700
C1807       C  0.13941616  0.61554503  0.47641580    -0.23300
C1808       C  0.12748241  0.62930943  0.46870036     0.19600
F1809       F  0.12306470  0.63186313  0.43968122    -0.13300
F1810       F  0.10336393  0.64854350  0.48290091    -0.15600
F1811       F  0.15538308  0.59986817  0.51442121    -0.15600
F1812       F  0.13696128  0.61789753  0.55769129    -0.13300
C1813       C  0.50130902  0.67774107  0.32319356     0.24700
C1814       C  0.48677958  0.68911127  0.31625290    -0.23400
C1815       C  0.46037418  0.67591037  0.32235900     0.19600
C1816       C  0.44875645  0.65180967  0.33551314     0.24700
C1817       C  0.46328837  0.64038847  0.34201614    -0.23300
C1818       C  0.48960656  0.65349148  0.33562416     0.19600
F1819       F  0.50411112  0.64297112  0.34199490    -0.13300
F1820       F  0.52684263  0.68996518  0.31745994    -0.15600
F1821       F  0.42323609  0.63936688  0.34122875    -0.15600
F1822       F  0.94583685  0.68645623  0.31610224    -0.13300
C1823       C  0.35730217  0.53634081  0.30965825     0.24700
C1824       C  0.36036559  0.54066718  0.34067449    -0.23400
C1825       C  0.33843413  0.53338153  0.35832632     0.19600
C1826       C  0.31413476  0.52130521  0.34549801     0.24700
C1827       C  0.31112534  0.51631396  0.31476423    -0.23300
C1828       C  0.33295077  0.52437370  0.29687509     0.19600
F1829       F  0.33069061  0.51971314  0.26713035    -0.13300
F1830       F  0.37779939  0.54339757  0.29152968    -0.15600
F1831       F  0.29135669  0.01178758  0.36388369    -0.15600
F1832       F  0.33800580  0.03515324  0.38922946    -0.13300
C1833       C  0.40621534  0.96140400  0.37940341     0.24700
C1834       C  0.42070103  0.98030175  0.35840234    -0.23400
C1835       C  0.43282659  0.97494065  0.33512810     0.19600
C1836       C  0.43315352  0.95212160  0.33526394     0.24700
C1837       C  0.42142457  0.93475449  0.35874037    -0.23300
C1838       C  0.40656334  0.93881547  0.37955162     0.19600
F1839       F  0.39444675  0.92196198  0.40186426    -0.13300
F1840       F  0.39390006  0.96596048  0.40168934    -0.15600
F1841       F  0.44747075  0.94848716  0.31472161    -0.15600
F1842       F  0.44982221  0.49425559  0.31614204    -0.13300
C1843       C  0.49299296  0.61996060  0.52594428     0.24700
C1844       C  0.01929947  0.63242120  0.51956495    -0.23400
C1845       C  0.02745307  0.63879454  0.48990802     0.19600
C1846       C  0.00941582  0.62981487  0.46681589     0.24700
C1847       C  0.48326022  0.61469857  0.47316169    -0.23300
C1848       C  0.47506669  0.61110769  0.50289259     0.19600
F1849       F  0.44980844  0.59656556  0.50955695    -0.13300
F1850       F  0.48468780  0.61425610  0.55450852    -0.15600
F1851       F  0.01763887  0.63374874  0.43813233    -0.15600
F1852       F  0.05278022  0.65097965  0.48311460    -0.13300
C1853       C  0.35983367  0.96968240  0.49210354     0.24700
C1854       C  0.36530641  0.97846843  0.52156436    -0.23400
C1855       C  0.37701776  0.00466573  0.52709205     0.19600
C1856       C  0.38638606  0.52410139  0.50237796     0.24700
C1857       C  0.38391918  0.51566811  0.47279591    -0.23300
C1858       C  0.36941550  0.48946953  0.46691811     0.19600
F1859       F  0.36646455  0.48085910  0.43850730    -0.13300
F1860       F  0.34866612  0.94449670  0.48618856    -0.15600
F1861       F  0.40034747  0.54926346  0.50871502    -0.15600
F1862       F  0.38216192  0.01353831  0.55543312    -0.13300
C1863       C  0.03894988  0.59246241  0.38371557     0.24700
C1864       C  0.01991870  0.57725339  0.36306246    -0.23400
C1865       C  0.02543256  0.56458127  0.34069490     0.19600
C1866       C  0.04848364  0.56451495  0.34148172     0.24700
C1867       C  0.06597544  0.57703023  0.36468458    -0.23300
C1868       C  0.06176708  0.59225251  0.38461257     0.19600
F1869       F  0.07877171  0.60513399  0.40663217    -0.13300
F1870       F  0.03441564  0.60561926  0.40485308    -0.15600
F1871       F  0.05216991  0.54964552  0.32197860    -0.15600
F1872       F  0.50732226  0.54959197  0.32032453    -0.13300
Fe1873     Fe  0.94999700  0.04550951  0.41792246     1.65800
Fe1874     Fe  0.93959381  0.05921261  0.34831194     1.73200
Fe1875     Fe  0.91830182  0.07743647  0.40944502     1.54400
O1876       O  0.90041760  0.05038381  0.44336955    -0.80500
O1877       O  0.95491126  0.09773360  0.34482626    -0.78800
O1878       O  0.91598187  0.02438711  0.43976581    -0.83000
O1879       O  0.96306815  0.07434187  0.44889055    -0.77900
O1880       O  0.88659433  0.05616718  0.38325324    -0.79700
O1881       O  0.97675244  0.06577407  0.35013524    -0.82400
C1882       C  0.96298799  0.09489421  0.45226812     0.98300
C1883       C  0.90034111  0.03020669  0.45056471     1.05800
O1884       O  0.93589272  0.06070236  0.39183060    -1.11400
O1885       O  0.92500866  0.02036670  0.34748952    -0.73800
O1886       O  0.93906661  0.01455853  0.39079516    -0.77300
O1887       O  0.94875653  0.10037269  0.43724004    -0.78000
C1888       C  0.92853970  0.00659884  0.36565394     0.97300
O1889       O  0.98520635  0.06516806  0.39822087    -0.76000
O1890       O  0.90291334  0.05209612  0.34051177    -0.81200
C1891       C  0.94910670  0.11298438  0.35671923     0.99900
C1892       C  0.88417910  0.04946516  0.35610245     1.05800
O1893       O  0.93360628  0.10689697  0.37848531    -0.76800
C1894       C  0.99208067  0.06907903  0.37117803     1.04100
Fe1895     Fe  0.56165686  0.12067770  0.64691366     1.65800
Fe1896     Fe  0.54839715  0.09450219  0.57741611     1.73200
Fe1897     Fe  0.58193232  0.15892021  0.58397560     1.54400
O1898       O  0.56444868  0.17254358  0.61206079    -0.80500
O1899       O  0.57928407  0.10792425  0.54929179    -0.78800
O1900       O  0.55223395  0.14824866  0.65263589    -0.83000
O1901       O  0.59976405  0.14644681  0.65215556    -0.77900
O1902       O  0.55288082  0.15035565  0.55331988    -0.79700
O1903       O  0.56460282  0.07759084  0.60090452    -0.82400
C1904       C  0.61706527  0.16460927  0.63716909     0.98300
C1905       C  0.55418801  0.16671178  0.63771298     1.05800
O1906       O  0.56398612  0.12476484  0.60279938    -1.11400
O1907       O  0.51554588  0.07691474  0.60221857    -0.73800
O1908       O  0.52300154  0.09413458  0.64745106    -0.77300
O1909       O  0.61310723  0.17134793  0.61195513    -0.78000
C1910       C  0.50822593  0.07844839  0.62817062     0.97300
O1911       O  0.57087278  0.09238392  0.64734173    -0.76000
O1912       O  0.53039942  0.10806373  0.55105830    -0.81200
C1913       C  0.59826585  0.12925507  0.54234186     0.99900
C1914       C  0.53435101  0.12969877  0.54343381     1.05800
O1915       O  0.60197182  0.14999791  0.55327151    -0.76800
C1916       C  0.57158722  0.07796625  0.62753075     1.04100
Fe1917     Fe  0.55115820  0.44905255  0.57732634     1.65800
Fe1918     Fe  0.56141070  0.43567742  0.64707056     1.73200
Fe1919     Fe  0.58235775  0.41676989  0.58616689     1.54400
O1920       O  0.55551833  0.39953618  0.55178081    -0.80500
O1921       O  0.59978563  0.45044950  0.65274497    -0.78800
O1922       O  0.52996816  0.41588846  0.55445228    -0.83000
O1923       O  0.58076853  0.46229937  0.54708818    -0.77900
O1924       O  0.56061084  0.38463196  0.61133437    -0.79700
O1925       O  0.56839067  0.47271578  0.64631268    -0.82400
C1926       C  0.60139142  0.46201648  0.54418426     0.98300
C1927       C  0.53546958  0.39991741  0.54421486     1.05800
O1928       O  0.56495197  0.43368409  0.60357969    -1.11400
O1929       O  0.52237336  0.42115429  0.64548319    -0.73800
O1930       O  0.51933936  0.43839678  0.60327031    -0.77300
O1931       O  0.60626364  0.44744483  0.55921058    -0.78000
C1932       C  0.50975264  0.42618547  0.62714667     0.97300
O1933       O  0.57135808  0.48316181  0.59842432    -0.76000
O1934       O  0.55399564  0.39914860  0.65398263    -0.81200
C1935       C  0.61603715  0.44592839  0.64084439     0.99900
C1936       C  0.55273302  0.38133497  0.63808830     1.05800
O1937       O  0.61119866  0.43180710  0.61804640    -0.76800
C1938       C  0.57385912  0.48894809  0.62577778     1.04100
Fe1939     Fe  0.62744785  0.05984472  0.34903937     1.65800
Fe1940     Fe  0.60215700  0.04518802  0.41845465     1.73200
Fe1941     Fe  0.66641441  0.07977759  0.41075814     1.54400
O1942       O  0.67827692  0.05960197  0.38492743    -0.80500
O1943       O  0.61719911  0.07338010  0.45028470    -0.78800
O1944       O  0.65757982  0.05369534  0.34193652    -0.83000
O1945       O  0.65078624  0.09825116  0.34468838    -0.77900
O1946       O  0.65708570  0.05268994  0.44485827    -0.79700
O1947       O  0.58649249  0.06430052  0.39889912    -0.82400
C1948       C  0.67153828  0.11447858  0.35689135     0.98300
C1949       C  0.67402828  0.05223374  0.35795760     1.05800
O1950       O  0.63209265  0.06162526  0.39263035    -1.11400
O1951       O  0.58232404  0.01447787  0.39093077    -0.73800
O1952       O  0.60330428  0.02098722  0.34813782    -0.77300
O1953       O  0.68040506  0.10945191  0.37988482    -0.78000
C1954       C  0.58544957  0.00690594  0.36587951     0.97300
O1955       O  0.59639283  0.06556041  0.35080763    -0.76000
O1956       O  0.61549977  0.02470351  0.43966406    -0.81200
C1957       C  0.63735781  0.09481328  0.45329869     0.99900
C1958       C  0.63703207  0.03164760  0.45131149     1.05800
O1959       O  0.65738778  0.10163998  0.43791728    -0.76800
C1960       C  0.58400615  0.06846660  0.37184095     1.04100
Fe1961     Fe  0.93999237  0.37458651  0.34821813     1.65800
Fe1962     Fe  0.95143916  0.39937331  0.41758837     1.73200
Fe1963     Fe  0.91834523  0.33542940  0.40962101     1.54400
O1964       O  0.88933484  0.32192692  0.37802844    -0.80500
O1965       O  0.97164841  0.38663873  0.44090305    -0.78800
O1966       O  0.90128787  0.35175944  0.34299097    -0.83000
O1967       O  0.94594659  0.34446355  0.34169123    -0.77900
O1968       O  0.89546267  0.34344322  0.43664675    -0.79700
O1969       O  0.98338921  0.41935422  0.39153160    -0.82400
C1970       C  0.94663337  0.32771059  0.35769327     0.98300
C1971       C  0.88470474  0.33121662  0.35519220     1.05800
O1972       O  0.93660634  0.36967895  0.39177429    -1.11400
O1973       O  0.93238857  0.41433739  0.39609496    -0.73800
O1974       O  0.93452140  0.40558702  0.34840980    -0.77300
O1975       O  0.93895073  0.32367655  0.38451785    -0.78000
C1976       C  0.92985565  0.41724651  0.36864780     0.97300
O1977       O  0.97929653  0.39832188  0.34945261    -0.76000
O1978       O  0.92180398  0.38409517  0.44776477    -0.81200
C1979       C  0.96556537  0.36504332  0.45127282     0.99900
C1980       C  0.90095165  0.36337845  0.45116012     1.05800
O1981       O  0.94522577  0.34472936  0.44376042    -0.76800
C1982       C  0.99248342  0.41612860  0.36759987     1.04100
Fe1983     Fe  0.87434640  0.43429358  0.64604826     1.65800
Fe1984     Fe  0.90017527  0.44843892  0.57624488     1.73200
Fe1985     Fe  0.83528739  0.41564469  0.58349960     1.54400
O1986       O  0.82198340  0.38429701  0.61118467    -0.80500
O1987       O  0.88674691  0.46671501  0.55040860    -0.78800
O1988       O  0.84743003  0.39653849  0.65101527    -0.83000
O1989       O  0.84722750  0.44449870  0.65258862    -0.77900
O1990       O  0.84382190  0.39569224  0.55236045    -0.79700
O1991       O  0.91801747  0.48068512  0.60117279    -0.82400
C1992       C  0.82871892  0.44322524  0.63805203     0.98300
C1993       C  0.82855594  0.37985031  0.63625349     1.05800
O1994       O  0.86985258  0.43274649  0.60199042    -1.11400
O1995       O  0.91745271  0.43235914  0.59896732    -0.73800
O1996       O  0.90227836  0.42418411  0.64530039    -0.77300
O1997       O  0.82243079  0.43330538  0.61230193    -0.78000
C1998       C  0.91707920  0.42446366  0.62508415     0.97300
O1999       O  0.90201651  0.47262585  0.64711209    -0.76000
O2000       O  0.88627050  0.41802443  0.54794819    -0.81200
C2001       C  0.86505690  0.46308076  0.54290322     0.99900
C2002       C  0.86465546  0.39935050  0.54109923     1.05800
O2003       O  0.84417387  0.44480484  0.55294050    -0.76800
C2004       C  0.91724615  0.48761264  0.62750569     1.04100
Fe2005     Fe  0.73059799  0.45562754  0.31165703     1.65800
Fe2006     Fe  0.71661870  0.43066377  0.24200443     1.73200
Fe2007     Fe  0.74851384  0.99262962  0.24977919     1.54400
O2008       O  0.73309002  0.00671283  0.28044781    -0.80500
O2009       O  0.74957931  0.44365967  0.21774649    -0.78800
O2010       O  0.71732441  0.48017217  0.31800317    -0.83000
O2011       O  0.76780828  0.48451592  0.31763089    -0.77900
O2012       O  0.71893769  0.48693801  0.22210114    -0.79700
O2013       O  0.72878905  0.41095163  0.26707909    -0.82400
C2014       C  0.78362763  0.99866995  0.30238817     0.98300
C2015       C  0.72039763  0.99905806  0.30459016     1.05800
O2016       O  0.73225361  0.46046190  0.26790348    -1.11400
O2017       O  0.68236357  0.41496608  0.26423700    -0.73800
O2018       O  0.69286911  0.42580445  0.31170435    -0.77300
O2019       O  0.78042047  0.00371802  0.27589445    -0.78000
C2020       C  0.67661314  0.41309468  0.29163497     0.97300
O2021       O  0.74388940  0.43040728  0.31046807    -0.76000
O2022       O  0.70193228  0.44570337  0.21291993    -0.81200
C2023       C  0.76657047  0.46530015  0.20842516     0.99900
C2024       C  0.70313268  0.46671445  0.20872863     1.05800
O2025       O  0.76764265  0.48579281  0.21641703    -0.76800
C2026       C  0.73986479  0.41329053  0.29167431     1.04100
Fe2027     Fe  0.61674773  0.37963328  0.08564476     1.65800
Fe2028     Fe  0.60530283  0.39300001  0.01573793     1.73200
Fe2029     Fe  0.58452934  0.41135268  0.07786721     1.54400
O2030       O  0.56539365  0.38329208  0.11030894    -0.80500
O2031       O  0.61734814  0.43077752  0.01043546    -0.78800
O2032       O  0.58357899  0.35948857  0.10952977    -0.83000
O2033       O  0.63145872  0.40928882  0.11533722    -0.77900
O2034       O  0.55315227  0.39137198  0.05067753    -0.79700
O2035       O  0.64337967  0.40263314  0.01696207    -0.82400
C2036       C  0.62991238  0.42887011  0.12019763     0.98300
C2037       C  0.56655995  0.36404620  0.11872079     1.05800
O2038       O  0.60217522  0.39470574  0.05966701    -1.11400
O2039       O  0.59358815  0.35473234  0.01488565    -0.73800
O2040       O  0.60433590  0.34793584  0.05974718    -0.77300
O2041       O  0.61413184  0.43326109  0.10697921    -0.78000
C2042       C  0.59556941  0.34052150  0.03382862     0.97300
O2043       O  0.65130531  0.39800756  0.06427051    -0.76000
O2044       O  0.56781668  0.38303543  0.00905131    -0.81200
C2045       C  0.61366951  0.44678001  0.02418282     0.99900
C2046       C  0.54995377  0.38250672  0.02442472     1.05800
O2047       O  0.60129535  0.44179464  0.04852929    -0.76800
C2048       C  0.65843060  0.40426701  0.03755199     1.04100
Fe2049     Fe  0.54269786  0.26913696  0.31472844     1.65800
Fe2050     Fe  0.56677890  0.28273006  0.24492307     1.73200
Fe2051     Fe  0.00282344  0.24790542  0.25395357     1.54400
O2052       O  0.98914446  0.21917808  0.28589499    -0.80500
O2053       O  0.55307163  0.30326384  0.22459902    -0.78800
O2054       O  0.52018117  0.23058996  0.31949562    -0.83000
O2055       O  0.51202190  0.27460925  0.32214231    -0.77900
O2056       O  0.01181269  0.22549154  0.22754727    -0.79700
O2057       O  0.58737283  0.31348138  0.27207512    -0.82400
C2058       C  0.99539736  0.27591423  0.30605242     0.98300
C2059       C  0.99901130  0.21427611  0.30798106     1.05800
O2060       O  0.53736897  0.26659864  0.27137727    -1.11400
O2061       O  0.58228625  0.26338928  0.26409175    -0.73800
O2062       O  0.57416974  0.26399603  0.31246122    -0.77300
O2063       O  0.99125421  0.26854449  0.27910120    -0.78000
C2064       C  0.58559783  0.25999014  0.29117105     0.97300
O2065       O  0.56627797  0.30821711  0.31451639    -0.76000
O2066       O  0.55111679  0.25451945  0.21297940    -0.81200
C2067       C  0.53144831  0.29561251  0.21281365     0.99900
C2068       C  0.53137959  0.23263062  0.21101869     1.05800
O2069       O  0.51182720  0.27420049  0.21913115    -0.76800
C2070       C  0.58424565  0.32178861  0.29658464     1.04100
Fe2071     Fe  0.60499788  0.20642687  0.01497702     1.65800
Fe2072     Fe  0.61777637  0.23225570  0.08446797     1.73200
Fe2073     Fe  0.58467074  0.16794629  0.07771858     1.54400
O2074       O  0.55412540  0.15488397  0.04873935    -0.80500
O2075       O  0.63683336  0.21915297  0.10959410    -0.78800
O2076       O  0.56671954  0.18141989  0.00999607    -0.83000
O2077       O  0.61330559  0.17799788  0.00880810    -0.77900
O2078       O  0.56367718  0.17645422  0.10774433    -0.79700
O2079       O  0.65003975  0.25065715  0.05898596    -0.82400
C2080       C  0.61257732  0.16029887  0.02419988     0.98300
C2081       C  0.54985941  0.16224164  0.02412199     1.05800
O2082       O  0.60243464  0.20211891  0.05901444    -1.11400
O2083       O  0.60048307  0.24847673  0.06180744    -0.73800
O2084       O  0.59710287  0.23579104  0.01466721    -0.77300
O2085       O  0.60338279  0.15507255  0.05042062    -0.78000
C2086       C  0.59519418  0.24938386  0.03474449     0.97300
O2087       O  0.64389092  0.23209544  0.01469381    -0.76000
O2088       O  0.58758904  0.21827522  0.11366676    -0.81200
C2089       C  0.63225377  0.19749232  0.11806274     0.99900
C2090       C  0.56812817  0.19707762  0.11990385     1.05800
O2091       O  0.61308648  0.17687748  0.10919783    -0.76800
C2092       C  0.65801425  0.24859444  0.03366971     1.04100
Fe2093     Fe  0.79190672  0.39289410  0.01561765     1.65800
Fe2094     Fe  0.76702276  0.38015720  0.08564069     1.73200
Fe2095     Fe  0.83156060  0.41234047  0.07712929     1.54400
O2096       O  0.84271034  0.39206872  0.05038736    -0.80500
O2097       O  0.78257118  0.40958322  0.11563628    -0.78800
O2098       O  0.82038523  0.38450261  0.00842593    -0.83000
O2099       O  0.81708556  0.43090907  0.01025190    -0.77900
O2100       O  0.82223410  0.38470151  0.11003605    -0.79700
O2101       O  0.75150541  0.39884386  0.06475034    -0.82400
C2102       C  0.83744543  0.44706778  0.02324314     0.98300
C2103       C  0.83742769  0.38368709  0.02388757     1.05800
O2104       O  0.79690955  0.39517401  0.05939102    -1.11400
O2105       O  0.74694406  0.34859100  0.05961656    -0.73800
O2106       O  0.76606800  0.35433880  0.01562565    -0.77300
O2107       O  0.84551289  0.44222534  0.04700018    -0.78000
C2108       C  0.74910617  0.34052505  0.03443233     0.97300
O2109       O  0.76243507  0.40087507  0.01697106    -0.76000
O2110       O  0.77978024  0.35992052  0.10877426    -0.81200
C2111       C  0.80383824  0.42971398  0.11966673     0.99900
C2112       C  0.80157040  0.36494136  0.11798394     1.05800
O2113       O  0.82404394  0.43458226  0.10570673    -0.76800
C2114       C  0.74985132  0.40373360  0.03774655     1.04100
Fe2115     Fe  0.71743522  0.28077531  0.24189944     1.65800
Fe2116     Fe  0.72900050  0.26932939  0.31181999     1.73200
Fe2117     Fe  0.74944592  0.24949339  0.25158570     1.54400
O2118       O  0.72289272  0.23195421  0.21707192    -0.80500
O2119       O  0.76776473  0.28560996  0.31636934    -0.78800
O2120       O  0.69624322  0.24695763  0.22045660    -0.83000
O2121       O  0.74650330  0.29323940  0.21104429    -0.77900
O2122       O  0.72752677  0.21764109  0.27709117    -0.79700
O2123       O  0.73454301  0.30590003  0.30985298    -0.82400
C2124       C  0.76750295  0.29363619  0.20848842     0.98300
C2125       C  0.70237415  0.23154637  0.20993278     1.05800
O2126       O  0.73193915  0.26640927  0.26848947    -1.11400
O2127       O  0.68974441  0.25367945  0.31068957    -0.73800
O2128       O  0.68609516  0.27054831  0.26843855    -0.77300
O2129       O  0.77318476  0.28009552  0.22442016    -0.78000
C2130       C  0.67686980  0.25857015  0.29252805     0.97300
O2131       O  0.73754787  0.31554858  0.26173308    -0.76000
O2132       O  0.72293009  0.23319686  0.32012410    -0.81200
C2133       C  0.78358669  0.28019461  0.30507340     0.99900
C2134       C  0.72067707  0.21491295  0.30423255     1.05800
O2135       O  0.77816085  0.26472119  0.28356530    -0.76800
C2136       C  0.73966897  0.32177420  0.28894650     1.04100
Fe2137     Fe  0.88481064  0.11389617  0.90635954     1.65800
Fe2138     Fe  0.89439711  0.10132422  0.97751994     1.73200
Fe2139     Fe  0.91626107  0.08167701  0.91741707     1.54400
O2140       O  0.88798915  0.06092808  0.88611624    -0.80500
O2141       O  0.93219036  0.11321396  0.98521801    -0.78800
O2142       O  0.86645127  0.08142625  0.88162123    -0.83000
O2143       O  0.91625422  0.12969438  0.87922836    -0.77900
O2144       O  0.89713375  0.05106272  0.94580998    -0.79700
O2145       O  0.90425828  0.13929136  0.97619259    -0.82400
C2146       C  0.93527483  0.12709309  0.87407579     0.98300
C2147       C  0.86975166  0.06304934  0.87560699     1.05800
O2148       O  0.89852169  0.09892184  0.93385242    -1.11400
O2149       O  0.85587985  0.08977636  0.97525901    -0.73800
O2150       O  0.85143067  0.10067053  0.92942710    -0.77300
O2151       O  0.93827216  0.11018445  0.88658289    -0.78000
C2152       C  0.84259509  0.09180459  0.95492029     0.97300
O2153       O  0.90150906  0.14771760  0.92856729    -0.76000
O2154       O  0.88394327  0.06390557  0.98492941    -0.81200
C2155       C  0.94958438  0.11137685  0.97170726     0.99900
C2156       C  0.88605243  0.04698830  0.97092379     1.05800
O2157       O  0.94613366  0.10013832  0.94686513    -0.76800
C2158       C  0.90664271  0.15449268  0.95550891     1.04100
Fe2159     Fe  0.95931776  0.22621480  0.68330013     1.65800
Fe2160     Fe  0.93571602  0.21404021  0.75420553     1.73200
Fe2161     Fe  0.50031122  0.24693885  0.74412367     1.54400
O2162       O  0.51240006  0.22853990  0.71553368    -0.80500
O2163       O  0.95051181  0.24514274  0.78159395    -0.78800
O2164       O  0.98669205  0.21632920  0.67590811    -0.83000
O2165       O  0.98541839  0.26390604  0.67658568    -0.77900
O2166       O  0.49264313  0.21861892  0.77550444    -0.79700
O2167       O  0.91787515  0.22982683  0.73199725    -0.82400
C2168       C  0.50467062  0.28108027  0.69041186     0.98300
C2169       C  0.50553965  0.21797115  0.69018167     1.05800
O2170       O  0.96519904  0.22909727  0.72711624    -1.11400
O2171       O  0.91690400  0.18102070  0.73044894    -0.73800
O2172       O  0.93220968  0.18780741  0.68420929    -0.77300
O2173       O  0.51232847  0.27729273  0.71513641    -0.78000
C2174       C  0.91731673  0.17334515  0.70438524     0.97300
O2175       O  0.93110629  0.23598981  0.68487738    -0.76000
O2176       O  0.95012354  0.19639274  0.77947292    -0.81200
C2177       C  0.97218460  0.26436119  0.78691914     0.99900
C2178       C  0.97209366  0.20028311  0.78603567     1.05800
O2179       O  0.99266905  0.26796176  0.77469543    -0.76800
C2180       C  0.91737181  0.23690230  0.70567818     1.04100
Fe2181     Fe  0.89439994  0.28698179  0.97675604     1.65800
Fe2182     Fe  0.88361700  0.26422194  0.90580775     1.73200
Fe2183     Fe  0.91623801  0.32818999  0.91663413     1.54400
O2184       O  0.89660690  0.33963711  0.94427917    -0.80500
O2185       O  0.91499022  0.27952178  0.87841070    -0.78800
O2186       O  0.88549401  0.31481767  0.98428690    -0.83000
O2187       O  0.93255593  0.31195460  0.98380945    -0.77900
O2188       O  0.88862248  0.32062135  0.88431042    -0.79700
O2189       O  0.89999016  0.24676200  0.92779737    -0.82400
C2190       C  0.94967613  0.33185402  0.97098227     0.98300
C2191       C  0.88652994  0.33316092  0.96996992     1.05800
O2192       O  0.89815085  0.29321472  0.93311440    -1.11400
O2193       O  0.85031222  0.24495831  0.92941248    -0.73800
O2194       O  0.85550234  0.26130931  0.97489250    -0.77300
O2195       O  0.94583578  0.34015218  0.94681022    -0.78000
C2196       C  0.84165889  0.24607209  0.95468827     0.97300
O2197       O  0.90276566  0.25794878  0.97543667    -0.76000
O2198       O  0.86549974  0.27844116  0.88103218    -0.81200
C2199       C  0.93469473  0.30098837  0.87398215     0.99900
C2200       C  0.86981739  0.30032298  0.87414494     1.05800
O2201       O  0.93840192  0.32107785  0.88688974    -0.76800
C2202       C  0.90508041  0.24509404  0.95471391     1.04100
Fe2203     Fe  0.70817515  0.10214934  0.97526287     1.65800
Fe2204     Fe  0.73096586  0.11398108  0.90403573     1.73200
Fe2205     Fe  0.66643552  0.08087694  0.91532574     1.54400
O2206       O  0.65561509  0.05022307  0.94341933    -0.80500
O2207       O  0.71539660  0.12979920  0.87773559    -0.78800
O2208       O  0.68206160  0.06436295  0.98233550    -0.83000
O2209       O  0.68118289  0.11228452  0.98323766    -0.77900
O2210       O  0.67423643  0.06084916  0.88316113    -0.79700
O2211       O  0.74880042  0.14756374  0.92660066    -0.82400
C2212       C  0.66156633  0.10970423  0.97009145     0.98300
C2213       C  0.66334343  0.04673306  0.96826746     1.05800
O2214       O  0.70178938  0.09897317  0.93158852    -1.11400
O2215       O  0.75047972  0.10025121  0.92669755    -0.73800
O2216       O  0.73633964  0.09252830  0.97342591    -0.77300
O2217       O  0.65396265  0.09833747  0.94520603    -0.78000
C2218       C  0.75091286  0.09294668  0.95287539     0.97300
O2219       O  0.73527099  0.14052212  0.97362103    -0.76000
O2220       O  0.71666975  0.08211980  0.87832942    -0.81200
C2221       C  0.69353875  0.12682134  0.87279566     0.99900
C2222       C  0.69481143  0.06361399  0.87204909     1.05800
O2223       O  0.67323052  0.10956393  0.88509311    -0.76800
C2224       C  0.74909540  0.15517903  0.95289941     1.04100
Fe2225     Fe  0.77347179  0.04001932  0.68439215     1.65800
Fe2226     Fe  0.78475162  0.06355850  0.75415482     1.73200
Fe2227     Fe  0.75145635  0.50024328  0.74424615     1.54400
O2228       O  0.72259764  0.48605784  0.71251856    -0.80500
O2229       O  0.80498645  0.05029118  0.77613489    -0.78800
O2230       O  0.73463520  0.01821618  0.67936806    -0.83000
O2231       O  0.77818632  0.00914714  0.67704017    -0.77900
O2232       O  0.72809025  0.50778252  0.77089543    -0.79700
O2233       O  0.81669726  0.08410830  0.72790980    -0.82400
C2234       C  0.77936929  0.49352752  0.69173726     0.98300
C2235       C  0.71695899  0.49590141  0.69114342     1.05800
O2236       O  0.76995532  0.03451149  0.72764806    -1.11400
O2237       O  0.76561492  0.07877442  0.73357361    -0.73800
O2238       O  0.76940053  0.07181774  0.68564898    -0.77300
O2239       O  0.77298198  0.48986670  0.71900936    -0.78000
C2240       C  0.76432501  0.08291270  0.70620098     0.97300
O2241       O  0.81283015  0.06286446  0.68601202    -0.76000
O2242       O  0.75492651  0.04736688  0.78443701    -0.81200
C2243       C  0.79793464  0.02862202  0.78693741     0.99900
C2244       C  0.73327470  0.02714348  0.78580778     1.05800
O2245       O  0.77812359  0.50964823  0.77851409    -0.76800
C2246       C  0.82588833  0.08087192  0.70400171     1.04100
Fe2247     Fe  0.78409272  0.21455036  0.75372511     1.65800
Fe2248     Fe  0.77373801  0.22640304  0.68276068     1.73200
Fe2249     Fe  0.75130703  0.24532607  0.74266099     1.54400
O2250       O  0.72894401  0.21591165  0.77188067    -0.80500
O2251       O  0.78096664  0.26264957  0.67466853    -0.78800
O2252       O  0.75299175  0.19892088  0.78175699    -0.83000
O2253       O  0.80254162  0.24730828  0.77787757    -0.77900
O2254       O  0.72209183  0.22732250  0.71202790    -0.79700
O2255       O  0.81288896  0.24109054  0.68495903    -0.82400
C2256       C  0.79774596  0.26444438  0.78531970     0.98300
C2257       C  0.73297474  0.20016177  0.78553777     1.05800
O2258       O  0.76971744  0.22885026  0.72633975    -1.11400
O2259       O  0.76726693  0.18966743  0.68424441    -0.73800
O2260       O  0.76714425  0.18044978  0.73218560    -0.77300
O2261       O  0.77860602  0.26543771  0.77554642    -0.78000
C2262       C  0.76397109  0.17424254  0.70498208     0.97300
O2263       O  0.81720494  0.22789281  0.72955471    -0.76000
O2264       O  0.73521265  0.21137807  0.67590045    -0.81200
C2265       C  0.78004968  0.27997728  0.68921981     0.99900
C2266       C  0.71808642  0.21429563  0.68843811     1.05800
O2267       O  0.77087549  0.27652111  0.71536790    -0.76800
C2268       C  0.82624323  0.23837473  0.70465146     1.04100
C2269       C  0.77328500  0.12157707  0.67775158     0.24700
C2270       C  0.75827200  0.10267355  0.69866864    -0.23400
C2271       C  0.74086106  0.10556011  0.71652489     0.19600
C2272       C  0.74069904  0.12824468  0.71616626     0.24700
C2273       C  0.75783851  0.14831071  0.69782119    -0.23300
C2274       C  0.77304479  0.14435217  0.67731822     0.19600
F2275       F  0.78993165  0.16357005  0.65954845    -0.13300
F2276       F  0.79037461  0.11931671  0.66032684    -0.15600
F2277       F  0.72528622  0.13139151  0.73552266    -0.15600
F2278       F  0.72541290  0.08714607  0.73602834    -0.13300
C2279       C  0.68926987  0.13752587  0.82098201     0.24700
C2280       C  0.69287329  0.14445738  0.85114846    -0.23400
C2281       C  0.70450110  0.17027739  0.85884048     0.19600
C2282       C  0.71508896  0.18900193  0.83674382     0.24700
C2283       C  0.71401987  0.18202853  0.80676690    -0.23300
C2284       C  0.69983739  0.15623814  0.79889941     0.19600
F2285       F  0.69864652  0.14915617  0.77001888    -0.13300
F2286       F  0.67855543  0.11274660  0.81306588    -0.15600
F2287       F  0.72896930  0.21379419  0.84485428    -0.15600
F2288       F  0.70825176  0.17734918  0.88791274    -0.13300
C2289       C  0.69031317  0.04739296  0.82034805     0.24700
C2290       C  0.69445756  0.04516690  0.85064526    -0.23400
C2291       C  0.70613054  0.03124813  0.85888118     0.19600
C2292       C  0.71629940  0.02236991  0.83715626     0.24700
C2293       C  0.71463024  0.02705808  0.80694306    -0.23300
C2294       C  0.70029604  0.03828089  0.79858100     0.19600
F2295       F  0.69835349  0.04282219  0.76943188    -0.13300
F2296       F  0.67942640  0.06106707  0.81185368    -0.15600
F2297       F  0.73013523  0.01164319  0.84570993    -0.15600
F2298       F  0.71013021  0.02871520  0.88806561    -0.13300
C2299       C  0.77396475  0.19981962  0.93605120     0.24700
C2300       C  0.76764831  0.18206667  0.95906804    -0.23400
C2301       C  0.78302853  0.18916368  0.98473308     0.19600
C2302       C  0.80641618  0.21217580  0.98522979     0.24700
C2303       C  0.81439111  0.22798139  0.96004843    -0.23300
C2304       C  0.79719102  0.22255819  0.93651430     0.19600
F2305       F  0.80405431  0.23808329  0.91245505    -0.13300
F2306       F  0.75887202  0.19402307  0.91160354    -0.15600
F2307       F  0.82251208  0.21738610  0.00856359    -0.15600
F2308       F  0.77707512  0.17260632  0.00760699    -0.13300
C2309       C  0.84151063  0.29735486  0.79996298     0.24700
C2310       C  0.81532709  0.28308206  0.80709341    -0.23400
C2311       C  0.80769523  0.28083567  0.83699399     0.19600
C2312       C  0.82612963  0.28991491  0.85957738     0.24700
C2313       C  0.85226281  0.30127383  0.85240278    -0.23300
C2314       C  0.85991960  0.30641718  0.82252339     0.19600
F2315       F  0.88503151  0.31716613  0.81510478    -0.13300
F2316       F  0.84921660  0.29997065  0.77112978    -0.15600
F2317       F  0.81842446  0.28528189  0.88843645    -0.15600
F2318       F  0.78252401  0.26695823  0.84440551    -0.13300
C2319       C  0.85889086  0.11648586  0.67345957     0.24700
C2320       C  0.85271998  0.09968498  0.69751661    -0.23400
C2321       C  0.87099153  0.10507913  0.71971829     0.19600
C2322       C  0.89382710  0.12830036  0.71989385     0.24700
C2323       C  0.89866752  0.14654111  0.69793780    -0.23300
C2324       C  0.88188975  0.13990881  0.67363300     0.19600
F2325       F  0.88615705  0.15720769  0.65214012    -0.13300
F2326       F  0.84136633  0.11165783  0.65188482    -0.15600
F2327       F  0.91011709  0.13396011  0.74312326    -0.15600
F2328       F  0.86555759  0.08889639  0.74289643    -0.13300
C2329       C  0.88316791  0.23695177  0.67438394     0.24700
C2330       C  0.89895215  0.24539080  0.69972765    -0.23400
C2331       C  0.89352602  0.25772355  0.72258884     0.19600
C2332       C  0.87083245  0.25819589  0.72228278     0.24700
C2333       C  0.85326880  0.24657331  0.69900499    -0.23300
C2334       C  0.86032809  0.23756244  0.67402794     0.19600
F2335       F  0.84378266  0.22655364  0.65105667    -0.13300
F2336       F  0.88822109  0.22544738  0.65166315    -0.15600
F2337       F  0.86481200  0.26776612  0.74622874    -0.15600
F2338       F  0.90906467  0.26723185  0.74666843    -0.13300
C2339       C  0.97652428  0.27992344  0.83881944     0.24700
C2340       C  0.97259785  0.28264767  0.80862219    -0.23400
C2341       C  0.96177664  0.29741558  0.80067939     0.19600
C2342       C  0.95219389  0.30673270  0.82266351     0.24700
C2343       C  0.95354353  0.30150784  0.85279241    -0.23300
C2344       C  0.96714083  0.28942095  0.86078315     0.19600
F2345       F  0.96889798  0.28446682  0.88982632    -0.13300
F2346       F  0.98666975  0.26550918  0.84701322    -0.15600
F2347       F  0.93897452  0.31818396  0.81439784    -0.15600
F2348       F  0.95810756  0.30051166  0.77155820    -0.13300
C2349       C  0.79774941  0.07166681  0.93818350     0.24700
C2350       C  0.81593761  0.08480263  0.96048943    -0.23400
C2351       C  0.80997743  0.09627375  0.98386133     0.19600
C2352       C  0.78710742  0.09674205  0.98320032     0.24700
C2353       C  0.77018130  0.08577455  0.95913491    -0.23300
C2354       C  0.77505143  0.07211655  0.93752017     0.19600
F2355       F  0.75883846  0.06106821  0.91426452    -0.13300
F2356       F  0.80308450  0.06045507  0.91539441    -0.15600
F2357       F  0.78306931  0.11052724  0.00396017    -0.15600
F2358       F  0.82760375  0.10972697  0.00513710    -0.13300
C2359       C  0.82543098  0.03122379  0.86169311     0.24700
C2360       C  0.85162352  0.04430227  0.85447942    -0.23400
C2361       C  0.85917547  0.04566577  0.82471174     0.19600
C2362       C  0.84085439  0.03733528  0.80213629     0.24700
C2363       C  0.81488602  0.02737414  0.80924426    -0.23300
C2364       C  0.80706350  0.02277486  0.83912532     0.19600
F2365       F  0.78346319  0.51140217  0.84368063    -0.13300
F2366       F  0.81785703  0.02918300  0.89052298    -0.15600
F2367       F  0.84866921  0.04144466  0.77329572    -0.15600
F2368       F  0.88439654  0.05813889  0.81736413    -0.13300
C2369       C  0.92873790  0.20002606  0.94169009     0.24700
C2370       C  0.91391235  0.18090878  0.96240828    -0.23400
C2371       C  0.90126814  0.18607372  0.98526082     0.19600
C2372       C  0.90066859  0.20871354  0.98488104     0.24700
C2373       C  0.91266566  0.22624161  0.96161432    -0.23300
C2374       C  0.92804877  0.22245509  0.94123706     0.19600
F2375       F  0.94070963  0.23954927  0.91927506    -0.13300
F2376       F  0.94202325  0.19599052  0.92012534    -0.15600
F2377       F  0.88584371  0.21199410  0.00502464    -0.15600
F2378       F  0.88689632  0.16799600  0.00566259    -0.13300
C2379       C  0.96802872  0.17094460  0.86004612     0.24700
C2380       C  0.95408656  0.14505200  0.85246843    -0.23400
C2381       C  0.95216641  0.13805058  0.82237557     0.19600
C2382       C  0.96150066  0.15672224  0.80012102     0.24700
C2383       C  0.97276124  0.18254444  0.80771629    -0.23300
C2384       C  0.97727946  0.18959495  0.83781741     0.19600
F2385       F  0.98767065  0.21433315  0.84575005    -0.13300
F2386       F  0.97011458  0.17810953  0.88900365    -0.15600
F2387       F  0.95721044  0.14952031  0.77111627    -0.15600
F2388       F  0.93855452  0.11319829  0.81444671    -0.13300
C2389       C  0.85314702  0.47558565  0.97888404     0.24700
C2390       C  0.85201855  0.47266441  0.01001319    -0.23400
C2391       C  0.86357205  0.49439753  0.02816920     0.19600
C2392       C  0.87360984  0.01825397  0.01550367     0.24700
C2393       C  0.87500650  0.02136849  0.98436109    -0.23300
C2394       C  0.86553386  0.99969819  0.96613845     0.19600
F2395       F  0.86635390  0.00184678  0.93601669    -0.13300
F2396       F  0.84281306  0.45496956  0.96070582    -0.15600
F2397       F  0.88309324  0.03871805  0.03385943    -0.15600
F2398       F  0.86286245  0.49220616  0.05828224    -0.13300
C2399       C  0.85535953  0.37319143  0.97937298     0.24700
C2400       C  0.85131200  0.37204050  0.01035362    -0.23400
C2401       C  0.85963366  0.35869371  0.02803534     0.19600
C2402       C  0.87136766  0.34639343  0.01498252     0.24700
C2403       C  0.87518165  0.34726034  0.98389669    -0.23300
C2404       C  0.86724478  0.36104021  0.96629816     0.19600
F2405       F  0.87021614  0.36216425  0.93626014    -0.13300
F2406       F  0.84784212  0.38615906  0.96162033    -0.15600
F2407       F  0.87893236  0.33358025  0.03292984    -0.15600
F2408       F  0.85552665  0.35666828  0.05790559    -0.13300
C2409       C  0.78897972  0.32101826  0.13296325     0.24700
C2410       C  0.80192027  0.34706417  0.13974277    -0.23400
C2411       C  0.80927060  0.35481340  0.16930660     0.19600
C2412       C  0.80089274  0.33669832  0.19216704     0.24700
C2413       C  0.78521557  0.31075138  0.18559852    -0.23300
C2414       C  0.78056241  0.30297309  0.15574992     0.19600
F2415       F  0.76547796  0.27802379  0.14888591    -0.13300
F2416       F  0.78264316  0.31310386  0.10440761    -0.15600
F2417       F  0.80562808  0.34459473  0.22092234    -0.15600
F2418       F  0.82181427  0.37985410  0.17643043    -0.13300
C2419       C  0.52133071  0.14593761  0.97992253     0.24700
C2420       C  0.52414762  0.14799645  0.01104017    -0.23400
C2421       C  0.50225302  0.13717883  0.02926354     0.19600
C2422       C  0.97791102  0.12504071  0.01650637     0.24700
C2423       C  0.97514020  0.12323947  0.98533770    -0.23300
C2424       C  0.99708832  0.13357147  0.96721304     0.19600
F2425       F  0.99512817  0.13256883  0.93706701    -0.13300
F2426       F  0.54212865  0.15584404  0.96173173    -0.15600
F2427       F  0.95707672  0.11494542  0.03464263    -0.15600
F2428       F  0.50439018  0.13921857  0.05936508    -0.13300
C2429       C  0.63303901  0.12838031  0.96694131     0.24700
C2430       C  0.64737952  0.12091732  0.98428555    -0.23400
C2431       C  0.64906203  0.12543988  0.01527957     0.19600
C2432       C  0.63701925  0.13745109  0.02841388     0.24700
C2433       C  0.62335312  0.14553693  0.01088710    -0.23300
C2434       C  0.62129306  0.14067199  0.98005536     0.19600
F2435       F  0.60791559  0.14789458  0.96251220    -0.13300
F2436       F  0.63118236  0.12474562  0.93700581    -0.15600
F2437       F  0.63974422  0.14220140  0.05813847    -0.15600
F2438       F  0.66253934  0.11843242  0.03296218    -0.13300
C2439       C  0.69127832  0.28369744  0.00262754     0.24700
C2440       C  0.68484483  0.26705294  0.02691486    -0.23400
C2441       C  0.70288444  0.27251868  0.04940897     0.19600
C2442       C  0.72546628  0.29580243  0.04993909     0.24700
C2443       C  0.73061000  0.31385444  0.02772614    -0.23300
C2444       C  0.71426734  0.30714421  0.00299781     0.19600
F2445       F  0.71889117  0.32439053  0.98130778    -0.13300
F2446       F  0.67400106  0.27878073  0.98071126    -0.15600
F2447       F  0.74096948  0.30183287  0.07396497    -0.15600
F2448       F  0.69719410  0.25655376  0.07285779    -0.13300
C2449       C  0.65879042  0.19950663  0.19327588     0.24700
C2450       C  0.68516211  0.21385077  0.18716523    -0.23400
C2451       C  0.69361951  0.21681886  0.15752881     0.19600
C2452       C  0.67586165  0.20860715  0.13427179     0.24700
C2453       C  0.64957029  0.19704911  0.14051011    -0.23300
C2454       C  0.64105202  0.19105913  0.17003756     0.19600
F2455       F  0.61572538  0.17990830  0.17653007    -0.13300
F2456       F  0.65025938  0.19593513  0.22182343    -0.15600
F2457       F  0.68436786  0.21392594  0.10574576    -0.15600
F2458       F  0.71898464  0.23046037  0.15108074    -0.13300
C2459       C  0.60942494  0.23866165  0.27577090     0.24700
C2460       C  0.60470102  0.25243947  0.29744695    -0.23400
C2461       C  0.62136934  0.26262041  0.32194384     0.19600
C2462       C  0.64407420  0.26180822  0.32256545     0.24700
C2463       C  0.65015038  0.25086364  0.29875311    -0.23300
C2464       C  0.63205211  0.23808452  0.27631074     0.19600
F2465       F  0.63751233  0.22726138  0.25318838    -0.13300
F2466       F  0.59320213  0.22763633  0.25252292    -0.15600
F2467       F  0.66145203  0.27438371  0.34437948    -0.15600
F2468       F  0.61725317  0.27584285  0.34339480    -0.13300
C2469       C  0.53757651  0.21050663  0.13549276     0.24700
C2470       C  0.55047854  0.19750255  0.14229099    -0.23400
C2471       C  0.55181927  0.19139766  0.17212554     0.19600
C2472       C  0.54251943  0.20034333  0.19496449     0.24700
C2473       C  0.53197838  0.21558969  0.18816015    -0.23300
C2474       C  0.52851815  0.21959259  0.15823651     0.19600
F2475       F  0.01840839  0.23424968  0.15109223    -0.13300
F2476       F  0.53581623  0.21636408  0.10683845    -0.15600
F2477       F  0.54603921  0.19622847  0.22377683    -0.15600
F2478       F  0.56449934  0.17915463  0.17931785    -0.13300
C2479       C  0.50229502  0.35713544  0.02884133     0.24700
C2480       C  0.52426100  0.37070673  0.01105885    -0.23400
C2481       C  0.52151131  0.37208944  0.98014607     0.19600
C2482       C  0.49726603  0.35990087  0.96719305     0.24700
C2483       C  0.97525201  0.34579986  0.98481330    -0.23300
C2484       C  0.97801504  0.34461573  0.01579947     0.19600
F2485       F  0.95723634  0.33152365  0.03366227    -0.13300
F2486       F  0.50430048  0.35505942  0.05867721    -0.15600
F2487       F  0.49541680  0.36119119  0.93720197    -0.17400
F2488       F  0.54232953  0.38535431  0.96238888    -0.13300
C2489       C  0.64922753  0.01774639  0.01248080     0.24700
C2490       C  0.65036340  0.02095489  0.98136143    -0.23400
C2491       C  0.63999600  0.99933724  0.96295800     0.19600
C2492       C  0.62317733  0.47513652  0.98020053     0.24700
C2493       C  0.62454492  0.47234701  0.01108408    -0.23300
C2494       C  0.63754451  0.49412762  0.02894150     0.19600
F2495       F  0.63935134  0.49198784  0.05879895    -0.13300
F2496       F  0.65886798  0.03812923  0.03097907    -0.15600
F2497       F  0.61027427  0.45441462  0.96247924    -0.15600
F2498       F  0.64117698  0.00169441  0.93285077    -0.13300
C2499       C  0.60079780  0.30897987  0.00375117     0.24700
C2500       C  0.58799302  0.31421685  0.02631217    -0.23400
C2501       C  0.57254679  0.29509432  0.04660815     0.19600
C2502       C  0.57241999  0.27228669  0.04688476     0.24700
C2503       C  0.58787736  0.26825021  0.02695396    -0.23300
C2504       C  0.60069001  0.28594823  0.00401754     0.19600
F2505       F  0.61556942  0.28238045  0.98424084    -0.13300
F2506       F  0.61585902  0.32723165  0.98385411    -0.15600
F2507       F  0.55911781  0.25512752  0.06853651    -0.15600
F2508       F  0.55961744  0.29956320  0.06816970    -0.13300
C2509       C  0.54933004  0.35509758  0.17050666     0.24700
C2510       C  0.54861087  0.34645854  0.14132603    -0.23400
C2511       C  0.53588481  0.32018177  0.13592212     0.19600
C2512       C  0.52670117  0.30293912  0.15960271     0.24700
C2513       C  0.53055541  0.31177412  0.18905467    -0.23300
C2514       C  0.54059230  0.33785209  0.19429275     0.19600
F2515       F  0.54404545  0.34680118  0.22260480    -0.13300
F2516       F  0.56127083  0.38036114  0.17632794    -0.15600
F2517       F  0.01701435  0.27790003  0.15386015    -0.15600
F2518       F  0.53441363  0.31134895  0.10785093    -0.13300
C2519       C  0.69031667  0.39951104  0.00757521     0.24700
C2520       C  0.68507060  0.41191085  0.03052286    -0.23400
C2521       C  0.70431722  0.42678080  0.05110217     0.19600
C2522       C  0.72717693  0.42658723  0.05116699     0.24700
C2523       C  0.73104933  0.41140639  0.03074731    -0.23300
C2524       C  0.71326567  0.39922634  0.00770484     0.19600
F2525       F  0.71650725  0.38437271  0.98773262    -0.13300
F2526       F  0.67195425  0.38491637  0.98750181    -0.15600
F2527       F  0.74451922  0.43933668  0.07294212    -0.15600
F2528       F  0.69997743  0.43953137  0.07294084    -0.13300
C2529       C  0.73606412  0.37698331  0.32098880     0.24700
C2530       C  0.74760620  0.39456177  0.29776056    -0.23400
C2531       C  0.76129810  0.39015730  0.27568226     0.19600
C2532       C  0.76114263  0.36733511  0.27483084     0.24700
C2533       C  0.74680099  0.34822268  0.29580083    -0.23300
C2534       C  0.73561661  0.35381415  0.32002763     0.19600
F2535       F  0.72182498  0.33590263  0.34083901    -0.13300
F2536       F  0.72261834  0.38086996  0.34248883    -0.15600
F2537       F  0.77319853  0.36309997  0.25192372    -0.15600
F2538       F  0.77270126  0.40696006  0.25315358    -0.13300
C2539       C  0.79330284  0.46248345  0.13440361     0.24700
C2540       C  0.80410326  0.44758547  0.14180312    -0.23400
C2541       C  0.80807643  0.44442825  0.17182903     0.19600
C2542       C  0.79883702  0.45370526  0.19415258     0.24700
C2543       C  0.78500065  0.46565452  0.18669906    -0.23300
C2544       C  0.78374703  0.47149126  0.15678251     0.19600
F2545       F  0.77066098  0.48321017  0.14905573    -0.13300
F2546       F  0.78963883  0.46601307  0.10543696    -0.15600
F2547       F  0.80139878  0.44910708  0.22307475    -0.15600
F2548       F  0.81831681  0.42997864  0.17948552    -0.13300
C2549       C  0.62221188  0.35372365  0.32471463     0.24700
C2550       C  0.60309807  0.34827571  0.30356848    -0.23400
C2551       C  0.60650889  0.36699590  0.28303207     0.19600
C2552       C  0.62988469  0.38967030  0.28124087     0.24700
C2553       C  0.65017885  0.39395798  0.30003740    -0.23300
C2554       C  0.64568487  0.37657914  0.32305812     0.19600
F2555       F  0.66497462  0.38016081  0.34143803    -0.13300
F2556       F  0.61942806  0.33565274  0.34437222    -0.15600
F2557       F  0.63342559  0.40644465  0.25939557    -0.15600
F2558       F  0.58813001  0.36211728  0.26257216    -0.13300
C2559       C  0.65887778  0.45394257  0.19462410     0.24700
C2560       C  0.68498897  0.46657123  0.18710743    -0.23400
C2561       C  0.69228620  0.47161848  0.15709688     0.19600
C2562       C  0.67365871  0.46186766  0.13477529     0.24700
C2563       C  0.64765780  0.44683049  0.14228759    -0.23300
C2564       C  0.64026056  0.44396676  0.17230301     0.19600
F2565       F  0.61526031  0.42909017  0.18000661    -0.13300
F2566       F  0.65152531  0.44889869  0.22355716    -0.15600
F2567       F  0.68107380  0.46481301  0.10581929    -0.15600
F2568       F  0.71739822  0.48327353  0.14936227    -0.13300
C2569       C  0.80929621  0.35109200  0.67991781     0.24700
C2570       C  0.81391297  0.35412378  0.64909680    -0.23400
C2571       C  0.80582870  0.33252249  0.63118992     0.19600
C2572       C  0.79437404  0.30836960  0.64408750     0.24700
C2573       C  0.79053261  0.30534011  0.67518951    -0.23300
C2574       C  0.79761178  0.32700118  0.69282590     0.19600
F2575       F  0.79407409  0.32510496  0.72278382    -0.13300
F2576       F  0.81619357  0.37157562  0.69766443    -0.15600
F2577       F  0.78726252  0.28801166  0.62604633    -0.15600
F2578       F  0.81010172  0.33486521  0.60135629    -0.13300
C2579       C  0.81381657  0.45662460  0.68294145     0.24700
C2580       C  0.81429022  0.45426406  0.65177072    -0.23400
C2581       C  0.80188719  0.46364704  0.63395485     0.19600
C2582       C  0.79016299  0.47599675  0.64693111     0.24700
C2583       C  0.79040659  0.47908736  0.67805639    -0.23300
C2584       C  0.80201798  0.46886020  0.69592430     0.19600
F2585       F  0.80279179  0.47139772  0.72601342    -0.13300
F2586       F  0.82484747  0.44712531  0.70103115    -0.15600
F2587       F  0.77863858  0.48499120  0.62888791    -0.15600
F2588       F  0.80186545  0.46173788  0.60383055    -0.13300
C2589       C  0.84483586  0.29121998  0.34030125     0.24700
C2590       C  0.85882207  0.31786593  0.34229550    -0.23400
C2591       C  0.84795019  0.33190181  0.33158623     0.19600
C2592       C  0.82340346  0.31949479  0.31948296     0.24700
C2593       C  0.80955403  0.29292768  0.31731165    -0.23300
C2594       C  0.82044438  0.27884283  0.32751661     0.19600
F2595       F  0.80717383  0.25311421  0.32580280    -0.13300
F2596       F  0.85498146  0.27723596  0.35016138    -0.15600
F2597       F  0.81326281  0.33344681  0.30941402    -0.15600
F2598       F  0.86085393  0.35763712  0.33349069    -0.13300
C2599       C  0.96627220  0.30018765  0.36276926     0.24700
C2600       C  0.95724989  0.31266986  0.34447849    -0.23400
C2601       C  0.95932519  0.31135887  0.31333578     0.19600
C2602       C  0.97098790  0.29877881  0.30086347     0.24700
C2603       C  0.98092851  0.28719193  0.31919272    -0.23300
C2604       C  0.97800018  0.28765436  0.35027075     0.19600
F2605       F  0.98659397  0.27605030  0.36874315    -0.13300
F2606       F  0.96456780  0.30074672  0.39288254    -0.15600
F2607       F  0.97339732  0.29886325  0.27078891    -0.15600
F2608       F  0.95021877  0.32240932  0.29472702    -0.13300
C2609       C  0.86925520  0.37554650  0.46607647     0.24700
C2610       C  0.88300193  0.36343644  0.47318631    -0.23400
C2611       C  0.88517834  0.35824319  0.50308457     0.19600
C2612       C  0.87603791  0.36738560  0.52570846     0.24700
C2613       C  0.86468596  0.38183084  0.51864869    -0.23300
C2614       C  0.86015244  0.38474482  0.48870946     0.19600
F2615       F  0.84962301  0.39900072  0.48138669    -0.13300
F2616       F  0.86695996  0.38070432  0.43727124    -0.15600
F2617       F  0.88046909  0.36429011  0.55455210    -0.15600
F2618       F  0.89859857  0.34679000  0.51043655    -0.13300
C2619       C  0.71197890  0.18621484  0.34833622     0.24700
C2620       C  0.70921894  0.18928731  0.31774081    -0.23400
C2621       C  0.69486201  0.16753990  0.30010246     0.19600
C2622       C  0.68314794  0.14335259  0.31278404     0.24700
C2623       C  0.68559529  0.14021061  0.34344812    -0.23300
C2624       C  0.70044507  0.16191328  0.36101681     0.19600
F2625       F  0.70308924  0.15971506  0.39067700    -0.13300
F2626       F  0.72597079  0.20673356  0.36600863    -0.15600
F2627       F  0.66936824  0.12293784  0.29486990    -0.15600
F2628       F  0.69133233  0.16965321  0.27063850    -0.13300
C2629       C  0.69176808  0.04124429  0.31354194     0.24700
C2630       C  0.68811949  0.04067553  0.34460418    -0.23400
C2631       C  0.69650678  0.02744445  0.36247218     0.19600
C2632       C  0.70738692  0.01430029  0.34947906     0.24700
C2633       C  0.71033376  0.01427090  0.31835770    -0.23300
C2634       C  0.70283855  0.02826168  0.30058557     0.19600
F2635       F  0.70521109  0.02853143  0.27049664    -0.13300
F2636       F  0.68443882  0.05423420  0.29556576    -0.15600
F2637       F  0.71500491  0.00153600  0.36743984    -0.15600
F2638       F  0.69320190  0.02626062  0.39246722    -0.13300
C2639       C  0.53719861  0.43897654  0.38429175     0.24700
C2640       C  0.51949192  0.43437709  0.36164172    -0.23400
C2641       C  0.52645312  0.45171877  0.33805208     0.19600
C2642       C  0.54977106  0.47481946  0.33906480     0.24700
C2643       C  0.56604706  0.48057939  0.36374831    -0.23300
C2644       C  0.56028725  0.46188863  0.38536293     0.19600
F2645       F  0.57587589  0.46684745  0.40916226    -0.13300
F2646       F  0.53086250  0.42241245  0.40720259    -0.15600
F2647       F  0.55483263  0.49270896  0.31805853    -0.15600
F2648       F  0.00951956  0.44785908  0.31614026    -0.13300
C2649       C  0.51881078  0.30971380  0.64590295     0.24700
C2650       C  0.51830449  0.30672165  0.67702291    -0.23400
C2651       C  0.52978748  0.32845937  0.69518366     0.19600
C2652       C  0.54113428  0.35266463  0.68254463     0.24700
C2653       C  0.54142611  0.35568771  0.65141004    -0.23300
C2654       C  0.53029616  0.33390283  0.63323144     0.19600
F2655       F  0.52975111  0.33589051  0.60316948    -0.13300
F2656       F  0.50819552  0.28917794  0.62760163    -0.15600
F2657       F  0.55185949  0.37314448  0.70091847    -0.15600
F2658       F  0.52919287  0.32632144  0.72529749    -0.13300
C2659       C  0.65583817  0.44565250  0.65525317     0.24700
C2660       C  0.64180259  0.45821470  0.65401827    -0.23400
C2661       C  0.65254264  0.48291654  0.66573274     0.19600
C2662       C  0.67699086  0.49497844  0.67797616     0.24700
C2663       C  0.69093566  0.48244039  0.67922653    -0.23300
C2664       C  0.68019999  0.45763266  0.66813182     0.19600
F2665       F  0.69361287  0.44537131  0.66898796    -0.13300
F2666       F  0.64582640  0.42170533  0.64447348    -0.15600
F2667       F  0.68592633  0.01614432  0.69610416    -0.15600
F2668       F  0.63964578  0.49570283  0.66462397    -0.13300
C2669       C  0.97529919  0.42675497  0.65718693     0.24700
C2670       C  0.98273605  0.41779293  0.63252022    -0.23400
C2671       C  0.96534730  0.40554146  0.60928516     0.19600
C2672       C  0.94206307  0.40479504  0.60891357     0.24700
C2673       C  0.93591885  0.41668742  0.63158070    -0.23300
C2674       C  0.95185457  0.42619200  0.65673848     0.19600
F2675       F  0.94630143  0.43768645  0.67902215    -0.13300
F2676       F  0.49196086  0.43892450  0.67988008    -0.15600
F2677       F  0.92668529  0.39476162  0.58479290    -0.15600
F2678       F  0.97208347  0.39661450  0.58535510    -0.13300
C2679       C  0.63329760  0.00595646  0.52786396     0.24700
C2680       C  0.61975312  0.47957046  0.52201713    -0.23400
C2681       C  0.61709981  0.47187533  0.49215822     0.19600
C2682       C  0.62671450  0.49000878  0.46938945     0.24700
C2683       C  0.63733884  0.01476988  0.47466617    -0.23300
C2684       C  0.64274568  0.02339446  0.50425068     0.19600
F2685       F  0.65433005  0.04858736  0.51033054    -0.13300
F2686       F  0.63627054  0.01468085  0.55622883    -0.15600
F2687       F  0.62176535  0.48218994  0.44062494    -0.15600
F2688       F  0.60272478  0.44690953  0.48499168    -0.13300
C2689       C  0.52661311  0.38474651  0.49184674     0.24700
C2690       C  0.51805529  0.38235477  0.52137273    -0.23400
C2691       C  0.99170012  0.36823086  0.52725069     0.19600
C2692       C  0.97400931  0.35936708  0.50388714     0.24700
C2693       C  0.98260263  0.36463239  0.47430292    -0.23300
C2694       C  0.50893589  0.37590282  0.46845370     0.19600
F2695       F  0.51760063  0.38034305  0.43996134    -0.13300
F2696       F  0.55201354  0.39829980  0.48551087    -0.15600
F2697       F  0.94867789  0.34843781  0.51021476    -0.15600
F2698       F  0.98307415  0.36496477  0.55572655    -0.13300
C2699       C  0.66446766  0.18512106  0.63178758     0.24700
C2700       C  0.64297205  0.17820394  0.64985249    -0.23400
C2701       C  0.64625240  0.18311322  0.68058269     0.19600
C2702       C  0.67065552  0.19496317  0.69306575     0.24700
C2703       C  0.69227944  0.20191165  0.67507579    -0.23300
C2704       C  0.68891243  0.19670749  0.64430170     0.19600
F2705       F  0.70926190  0.20296397  0.62621994    -0.13300
F2706       F  0.66171757  0.17980981  0.60219420    -0.15600
F2707       F  0.67298424  0.19895230  0.72293760    -0.15600
F2708       F  0.62577540  0.17657555  0.69857040    -0.13300
C2709       C  0.54273814  0.18385182  0.68207927     0.24700
C2710       C  0.54364722  0.18169928  0.65092448    -0.23400
C2711       C  0.53326939  0.19292873  0.63275688     0.19600
C2712       C  0.52134534  0.20518211  0.64550406     0.24700
C2713       C  0.51978779  0.20668113  0.67667595    -0.23300
C2714       C  0.53103499  0.19628982  0.69480632     0.19600
F2715       F  0.52979859  0.19719863  0.72494406    -0.13300
F2716       F  0.55311833  0.17381097  0.70035237    -0.15600
F2717       F  0.51126463  0.21554201  0.62727631    -0.15600
F2718       F  0.53369406  0.19116633  0.60264079    -0.13300
C2719       C  0.95225044  0.02046551  0.66056590     0.24700
C2720       C  0.93520638  0.01390730  0.63656959    -0.23400
C2721       C  0.93968589  0.03214069  0.61482422     0.19600
C2722       C  0.96271308  0.05506218  0.61435607     0.24700
C2723       C  0.98148511  0.06015265  0.63578438    -0.23300
C2724       C  0.97546684  0.04366113  0.66017081     0.19600
F2725       F  0.49327727  0.04850092  0.68127019    -0.13300
F2726       F  0.94959626  0.50287592  0.67899634    -0.15600
F2727       F  0.96785645  0.07104166  0.59105069    -0.15600
F2728       F  0.92300885  0.02651001  0.59203733    -0.13300
C2729       C  0.56760327  0.04231718  0.65849448     0.24700
C2730       C  0.57974787  0.05981163  0.63526669    -0.23400
C2731       C  0.59547699  0.05625861  0.61527430     0.19600
C2732       C  0.59617322  0.03388021  0.61575332     0.24700
C2733       C  0.58092425  0.01462540  0.63607725    -0.23300
C2734       C  0.56818681  0.01968785  0.65890851     0.19600
F2735       F  0.55409705  0.50246459  0.67612967    -0.13300
F2736       F  0.55256622  0.04555953  0.67835861    -0.15600
F2737       F  0.60963145  0.02990540  0.59435907    -0.15600
F2738       F  0.60821168  0.07339478  0.59342410    -0.13300
C2739       C  0.61499611  0.13478798  0.49049360     0.24700
C2740       C  0.61628760  0.12905584  0.52045271    -0.23400
C2741       C  0.63014783  0.11717778  0.52801649     0.19600
C2742       C  0.63994272  0.10839430  0.50576909     0.24700
C2743       C  0.63643459  0.11188822  0.47569540    -0.23300
C2744       C  0.62521852  0.12637827  0.46821021     0.19600
F2745       F  0.62196345  0.13018836  0.43920705    -0.13300
F2746       F  0.60154611  0.14609642  0.48263626    -0.15600
F2747       F  0.65063588  0.09437186  0.51348469    -0.15600
F2748       F  0.63233375  0.11227272  0.55692371    -0.13300
C2749       C  0.00018049  0.17706128  0.32853664     0.24700
C2750       C  0.98584749  0.18842513  0.32067504    -0.23400
C2751       C  0.95920382  0.17496317  0.32530104     0.19600
C2752       C  0.94714530  0.15054794  0.33773184     0.24700
C2753       C  0.96149847  0.13906604  0.34492621    -0.23300
C2754       C  0.98807781  0.15251849  0.34019855     0.19600
F2755       F  0.00242448  0.14199468  0.34737249    -0.13300
F2756       F  0.02591692  0.18951610  0.32424170    -0.15600
F2757       F  0.92141173  0.13786299  0.34197632    -0.15600
F2758       F  0.44508081  0.18588147  0.31875550    -0.13300
C2759       C  0.85554692  0.03272132  0.31111144     0.24700
C2760       C  0.85847565  0.03769851  0.34202752    -0.23400
C2761       C  0.83639921  0.03048258  0.35940910     0.19600
C2762       C  0.81216508  0.01816667  0.34638233     0.24700
C2763       C  0.80936144  0.01288589  0.31570040    -0.23300
C2764       C  0.83127252  0.02050770  0.29814999     0.19600
F2765       F  0.82916654  0.01523498  0.26855318    -0.13300
F2766       F  0.87609540  0.03936645  0.29322844    -0.15600
F2767       F  0.79347964  0.51447342  0.36328070    -0.15600
F2768       F  0.84024675  0.53724066  0.38828688    -0.13300
C2769       C  0.90585368  0.46238840  0.37837915     0.24700
C2770       C  0.92136015  0.48137814  0.35796200    -0.23400
C2771       C  0.93482863  0.47626097  0.33618659     0.19600
C2772       C  0.93544329  0.45365021  0.33744363     0.24700
C2773       C  0.92263905  0.43617273  0.36058972    -0.23300
C2774       C  0.90645635  0.43994486  0.37969444     0.19600
F2775       F  0.89294930  0.42288897  0.40139031    -0.13300
F2776       F  0.89218446  0.46674093  0.39910228    -0.15600
F2777       F  0.95098196  0.45037989  0.31840322    -0.15600
F2778       F  0.94697648  0.99291655  0.31430682    -0.13300
C2779       C  0.99057771  0.11832059  0.52757847     0.24700
C2780       C  0.51685935  0.13000985  0.52101150    -0.23400
C2781       C  0.52497119  0.13536960  0.49125340     0.19600
C2782       C  0.50691122  0.12673684  0.46827137     0.24700
C2783       C  0.98060306  0.11255088  0.47479947    -0.23300
C2784       C  0.97254383  0.10976705  0.50457293     0.19600
F2785       F  0.94722682  0.09643388  0.51136650    -0.13300
F2786       F  0.98237927  0.11347133  0.55624289    -0.15600
F2787       F  0.51502634  0.12970949  0.43958752    -0.15600
F2788       F  0.55019129  0.14618837  0.48435364    -0.13300
C2789       C  0.85985086  0.47196102  0.49042149     0.24700
C2790       C  0.86506817  0.48038214  0.52003169    -0.23400
C2791       C  0.87718476  0.50658179  0.52589033     0.19600
C2792       C  0.88559183  0.02192519  0.50324097     0.24700
C2793       C  0.88285334  0.01313620  0.47379826    -0.23300
C2794       C  0.86865162  0.98686156  0.46834291     0.19600
F2795       F  0.86540979  0.97792424  0.44005033    -0.13300
F2796       F  0.84838909  0.44680090  0.48416188    -0.15600
F2797       F  0.89929275  0.04718035  0.50913856    -0.15600
F2798       F  0.88213860  0.51515662  0.55436485    -0.13300
C2799       C  0.53795152  0.09111135  0.38497581     0.24700
C2800       C  0.51859865  0.07601337  0.36459558    -0.23400
C2801       C  0.52374340  0.06322539  0.34199846     0.19600
C2802       C  0.54671175  0.06295001  0.34225589     0.24700
C2803       C  0.56460541  0.07543728  0.36512002    -0.23300
C2804       C  0.56072474  0.09075911  0.38529995     0.19600
F2805       F  0.57811323  0.10377662  0.40692060    -0.13300
F2806       F  0.53391997  0.10452596  0.40623163    -0.15600
F2807       F  0.54999925  0.04803182  0.32242942    -0.15600
F2808       F  0.00549743  0.04853604  0.32186275    -0.13300
Fe2809     Fe  0.95141427  0.54706603  0.41696756     1.65800
Fe2810     Fe  0.94102652  0.56055125  0.34693198     1.73200
Fe2811     Fe  0.92053127  0.57983305  0.40809953     1.54400
O2812       O  0.90174305  0.55272318  0.44182768    -0.80500
O2813       O  0.95620436  0.59895685  0.34257449    -0.78800
O2814       O  0.91783527  0.52711084  0.44002788    -0.83000
O2815       O  0.96595818  0.57664559  0.44693657    -0.77900
O2816       O  0.88885535  0.55940119  0.38159079    -0.79700
O2817       O  0.97821093  0.56736065  0.34848919    -0.82400
C2818       C  0.96569499  0.59706876  0.45059496     0.98300
C2819       C  0.90183092  0.53280891  0.44990192     1.05800
O2820       O  0.93757356  0.56245115  0.39059763    -1.11400
O2821       O  0.92658340  0.52174389  0.34652962    -0.73800
O2822       O  0.93904787  0.51550302  0.39071158    -0.77300
O2823       O  0.95096645  0.60227426  0.43619755    -0.78000
C2824       C  0.92915857  0.50773659  0.36527236     0.97300
O2825       O  0.98623180  0.56533283  0.39642423    -0.76000
O2826       O  0.90434387  0.55334291  0.33929683    -0.81200
C2827       C  0.95120520  0.61467359  0.35473983     0.99900
C2828       C  0.88607080  0.55198973  0.35469786     1.05800
O2829       O  0.93661725  0.60929162  0.37728817    -0.76800
C2830       C  0.99329361  0.56999688  0.36950579     1.04100
Fe2831     Fe  0.56223083  0.62117963  0.64545508     1.65800
Fe2832     Fe  0.55034587  0.59668293  0.57542079     1.73200
Fe2833     Fe  0.58359352  0.66076991  0.58396813     1.54400
O2834       O  0.56351615  0.67246791  0.61007075    -0.80500
O2835       O  0.58095395  0.61178356  0.54654238    -0.78800
O2836       O  0.55390800  0.64953021  0.65168130    -0.83000
O2837       O  0.60042489  0.64590089  0.65172803    -0.77900
O2838       O  0.55644224  0.65222441  0.55049348    -0.79700
O2839       O  0.56792657  0.58048390  0.59745035    -0.82400
C2840       C  0.61723923  0.66582042  0.63874718     0.98300
C2841       C  0.55429806  0.66705557  0.63621414     1.05800
O2842       O  0.56539171  0.62627721  0.60167608    -1.11400
O2843       O  0.51759661  0.57713845  0.60048125    -0.73800
O2844       O  0.52337858  0.59551271  0.64484264    -0.77300
O2845       O  0.61307133  0.67388932  0.61460637    -0.78000
C2846       C  0.50944879  0.57892133  0.62585329     0.97300
O2847       O  0.57019818  0.59199926  0.64497181    -0.76000
O2848       O  0.53130137  0.61011041  0.55105849    -0.81200
C2849       C  0.60129253  0.63288066  0.54251788     0.99900
C2850       C  0.53674026  0.63185336  0.54190447     1.05800
O2851       O  0.60601116  0.65301064  0.55600908    -0.76800
C2852       C  0.57287786  0.57916958  0.62454000     1.04100
Fe2853     Fe  0.55064827  0.94834911  0.57899810     1.65800
Fe2854     Fe  0.56229831  0.93541066  0.64887030     1.73200
Fe2855     Fe  0.58284426  0.91662573  0.58695909     1.54400
O2856       O  0.55514043  0.89781917  0.55410059    -0.80500
O2857       O  0.60057003  0.94899210  0.65434859    -0.78800
O2858       O  0.53130344  0.91608067  0.55392977    -0.83000
O2859       O  0.58131032  0.96409093  0.55016602    -0.77900
O2860       O  0.56269542  0.88494644  0.61350373    -0.79700
O2861       O  0.57054816  0.97275148  0.64887249    -0.82400
C2862       C  0.60098928  0.96248556  0.54505407     0.98300
C2863       C  0.53606405  0.89924803  0.54503036     1.05800
O2864       O  0.56527437  0.93339658  0.60497692    -1.11400
O2865       O  0.52344415  0.92217309  0.64840096    -0.73800
O2866       O  0.51798728  0.93486139  0.60404183    -0.77300
O2867       O  0.60515544  0.94649770  0.55801542    -0.78000
C2868       C  0.50962886  0.92468763  0.62923146     0.97300
O2869       O  0.56838220  0.98201332  0.60146458    -0.76000
O2870       O  0.55351735  0.89852896  0.65519898    -0.81200
C2871       C  0.61732532  0.94604009  0.64100226     0.99900
C2872       C  0.55344825  0.88115150  0.63966042     1.05800
O2873       O  0.61279932  0.93325603  0.61712521    -0.76800
C2874       C  0.57330290  0.98831001  0.62855653     1.04100
Fe2875     Fe  0.62757453  0.55976476  0.35099392     1.65800
Fe2876     Fe  0.60291236  0.54745799  0.42119915     1.73200
Fe2877     Fe  0.66774224  0.58041661  0.41237513     1.54400
O2878       O  0.68006795  0.56170857  0.38459213    -0.80500
O2879       O  0.61767331  0.57805703  0.44928220    -0.78800
O2880       O  0.65543948  0.55074315  0.34421193    -0.83000
O2881       O  0.65310751  0.59762899  0.34494895    -0.77900
O2882       O  0.65939789  0.55230448  0.44427856    -0.79700
O2883       O  0.58574142  0.56395223  0.39889122    -0.82400
C2884       C  0.67249393  0.61471479  0.35859838     0.98300
C2885       C  0.67377681  0.55182384  0.35884922     1.05800
O2886       O  0.63281900  0.56255706  0.39482722    -1.11400
O2887       O  0.58386620  0.51479037  0.39668792    -0.73800
O2888       O  0.60106484  0.52130363  0.35141360    -0.77300
O2889       O  0.68033822  0.61076810  0.38311279    -0.78000
C2890       C  0.58507577  0.50707602  0.37088984     0.97300
O2891       O  0.59871209  0.56833781  0.35170613    -0.76000
O2892       O  0.61678334  0.52926234  0.44630826    -0.81200
C2893       C  0.63921376  0.59742171  0.45468199     0.99900
C2894       C  0.63868494  0.53358102  0.45403022     1.05800
O2895       O  0.65979690  0.60146695  0.44237060    -0.76800
C2896       C  0.58496501  0.56976327  0.37203982     1.04100
Fe2897     Fe  0.93947771  0.87370635  0.34750531     1.65800
Fe2898     Fe  0.95269555  0.90000375  0.41680682     1.73200
Fe2899     Fe  0.91990402  0.83556486  0.41051066     1.54400
O2900       O  0.88824583  0.82291275  0.38345393    -0.80500
O2901       O  0.96872424  0.88596296  0.44564960    -0.78800
O2902       O  0.90205554  0.84575255  0.34176426    -0.83000
O2903       O  0.95148909  0.84803192  0.34247165    -0.77900
O2904       O  0.90079762  0.84477691  0.44239191    -0.79700
O2905       O  0.98663631  0.91634002  0.39382751    -0.82400
C2906       C  0.94825562  0.82869068  0.35658754     0.98300
C2907       C  0.88459970  0.82813770  0.35723799     1.05800
O2908       O  0.93732281  0.86968330  0.39156760    -1.11400
O2909       O  0.93886493  0.91825095  0.39143444    -0.73800
O2910       O  0.92751596  0.90001159  0.34681953    -0.77300
O2911       O  0.93661697  0.82180703  0.38142637    -0.78000
C2912       C  0.92949767  0.91631743  0.36574256     0.97300
O2913       O  0.97749228  0.90243483  0.34706656    -0.76000
O2914       O  0.92036865  0.88702123  0.44251819    -0.81200
C2915       C  0.96631588  0.86467492  0.45190677     0.99900
C2916       C  0.90282788  0.86545210  0.45135168     1.05800
O2917       O  0.94952685  0.84403735  0.44004441    -0.76800
C2918       C  0.99307859  0.91650354  0.36693125     1.04100
Fe2919     Fe  0.87504316  0.93400179  0.64842433     1.65800
Fe2920     Fe  0.90084818  0.94755357  0.57869165     1.73200
Fe2921     Fe  0.83593966  0.91470917  0.58598664     1.54400
O2922       O  0.82282062  0.88382937  0.61421588    -0.80500
O2923       O  0.88727228  0.96548023  0.55240347    -0.78800
O2924       O  0.84879309  0.89631265  0.65358468    -0.83000
O2925       O  0.84760916  0.94366715  0.65467759    -0.77900
O2926       O  0.84454619  0.89447568  0.55523808    -0.79700
O2927       O  0.91850150  0.98005677  0.60339209    -0.82400
C2928       C  0.82921281  0.94255316  0.64013050     0.98300
C2929       C  0.82979975  0.87957084  0.63911013     1.05800
O2930       O  0.87052553  0.93204365  0.60439243    -1.11400
O2931       O  0.91815769  0.93159810  0.60172157    -0.73800
O2932       O  0.90335122  0.92449136  0.64819922    -0.77300
O2933       O  0.82303135  0.93270609  0.61432630    -0.78000
C2934       C  0.91791095  0.92421691  0.62807688     0.97300
O2935       O  0.90194283  0.97231973  0.64907378    -0.76000
O2936       O  0.88699752  0.91693049  0.55070631    -0.81200
C2937       C  0.86550682  0.96155464  0.54469275     0.99900
C2938       C  0.86539920  0.89819793  0.54391005     1.05800
O2939       O  0.84468612  0.94335332  0.55489963    -0.76800
C2940       C  0.91721195  0.98718552  0.62948482     1.04100
Fe2941     Fe  0.72831082  0.95352857  0.31157758     1.65800
Fe2942     Fe  0.71523064  0.92862960  0.24171155     1.73200
Fe2943     Fe  0.74942360  0.49478942  0.24983476     1.54400
O2944       O  0.73362134  0.50813802  0.28074044    -0.80500
O2945       O  0.74840971  0.94100984  0.21802382    -0.78800
O2946       O  0.71581257  0.97875647  0.31750751    -0.83000
O2947       O  0.76569240  0.98172202  0.31810281    -0.77900
O2948       O  0.71830195  0.98524026  0.22169496    -0.79700
O2949       O  0.72666234  0.90858082  0.26730678    -0.82400
C2950       C  0.78535416  0.50178065  0.30180913     0.98300
C2951       C  0.72120310  0.50021309  0.30500955     1.05800
O2952       O  0.73072545  0.95835501  0.26777164    -1.11400
O2953       O  0.68084335  0.91363084  0.26322323    -0.73800
O2954       O  0.69031276  0.92458370  0.31085537    -0.77300
O2955       O  0.78168802  0.50667500  0.27546588    -0.78000
C2956       C  0.67443929  0.91224691  0.29033209     0.97300
O2957       O  0.74085073  0.92769280  0.31103812    -0.76000
O2958       O  0.70136307  0.94408521  0.21197470    -0.81200
C2959       C  0.76538412  0.96257047  0.20851712     0.99900
C2960       C  0.70272912  0.96518888  0.20781973     1.05800
O2961       O  0.76651579  0.98311847  0.21646285    -0.76800
C2962       C  0.73737045  0.91082612  0.29214461     1.04100
Fe2963     Fe  0.61772154  0.87906068  0.08311393     1.65800
Fe2964     Fe  0.60728218  0.89188884  0.01235503     1.73200
Fe2965     Fe  0.58659199  0.91161249  0.07350167     1.54400
O2966       O  0.56607072  0.88362705  0.10549565    -0.80500
O2967       O  0.61974575  0.92976237  0.00608739    -0.78800
O2968       O  0.58447625  0.86005890  0.10724589    -0.83000
O2969       O  0.63320137  0.90926961  0.11191063    -0.77900
O2970       O  0.55578939  0.89240167  0.04549792    -0.79700
O2971       O  0.64527312  0.90132081  0.01420111    -0.82400
C2972       C  0.63146731  0.92871513  0.11689890     0.98300
C2973       C  0.56711766  0.86460702  0.11502963     1.05800
O2974       O  0.60386987  0.89425866  0.05623763    -1.11400
O2975       O  0.59503972  0.85339924  0.01254553    -0.73800
O2976       O  0.60433319  0.84686739  0.05829583    -0.77300
O2977       O  0.61560923  0.93300151  0.10365661    -0.78000
C2978       C  0.59585052  0.83912748  0.03239163     0.97300
O2979       O  0.65226665  0.89613117  0.06164183    -0.76000
O2980       O  0.56998103  0.88213046  0.00495121    -0.81200
C2981       C  0.61676130  0.94627629  0.01972003     0.99900
C2982       C  0.55239981  0.88266822  0.01972238     1.05800
O2983       O  0.60462972  0.94178723  0.04418565    -0.76800
C2984       C  0.65991262  0.90260321  0.03509604     1.04100
Fe2985     Fe  0.54235220  0.76949875  0.31028205     1.65800
Fe2986     Fe  0.56591967  0.78290941  0.24049655     1.73200
Fe2987     Fe  0.00195806  0.74865030  0.25031436     1.54400
O2988       O  0.98874069  0.72021088  0.28280476    -0.80500
O2989       O  0.55226451  0.80335916  0.21993009    -0.78800
O2990       O  0.52127735  0.73094079  0.31415941    -0.83000
O2991       O  0.51084418  0.77325809  0.31886793    -0.77900
O2992       O  0.01013553  0.72577441  0.22392222    -0.79700
O2993       O  0.58620925  0.81378531  0.26783576    -0.82400
C2994       C  0.99502289  0.77606484  0.30291805     0.98300
C2995       C  0.99949270  0.71492866  0.30365402     1.05800
O2996       O  0.53671762  0.76707908  0.26710095    -1.11400
O2997       O  0.58165082  0.76367392  0.25955906    -0.73800
O2998       O  0.57492289  0.76629812  0.30782631    -0.77300
O2999       O  0.99134721  0.76994398  0.27556438    -0.78000
C3000       C  0.58599134  0.76170791  0.28669689     0.97300
O3001       O  0.56427672  0.80846463  0.30974532    -0.76000
O3002       O  0.54982854  0.75425460  0.20906759    -0.81200
C3003       C  0.53056691  0.79604021  0.20854683     0.99900
C3004       C  0.52978712  0.73250998  0.20755175     1.05800
O3005       O  0.51077512  0.77485764  0.21525668    -0.76800
C3006       C  0.58233178  0.82211021  0.29198957     1.04100
Fe3007     Fe  0.60471863  0.70524709  0.01657013     1.65800
Fe3008     Fe  0.61720763  0.73027119  0.08643584     1.73200
Fe3009     Fe  0.58411512  0.66588191  0.07857562     1.54400
O3010       O  0.55294559  0.65395403  0.05105541    -0.80500
O3011       O  0.63343282  0.71575412  0.11414478    -0.78800
O3012       O  0.56700684  0.67853311  0.01066473    -0.83000
O3013       O  0.61551355  0.67879204  0.01064264    -0.77900
O3014       O  0.56436803  0.67459450  0.11029266    -0.79700
O3015       O  0.65099232  0.74728509  0.06340240    -0.82400
C3016       C  0.61263336  0.65945639  0.02440315     0.98300
C3017       C  0.54945035  0.66044025  0.02548937     1.05800
O3018       O  0.60199647  0.70039277  0.06049109    -1.11400
O3019       O  0.60304796  0.74870087  0.06208995    -0.73800
O3020       O  0.59413323  0.73251911  0.01636247    -0.77300
O3021       O  0.60123566  0.65244933  0.04939025    -0.78000
C3022       C  0.59497919  0.74787352  0.03591554     0.97300
O3023       O  0.64311590  0.73286024  0.01680549    -0.76000
O3024       O  0.58511632  0.71682877  0.11228806    -0.81200
C3025       C  0.63058812  0.69423770  0.12006935     0.99900
C3026       C  0.56686980  0.69528929  0.11996359     1.05800
O3027       O  0.61330750  0.67375703  0.10843287    -0.76800
C3028       C  0.65817180  0.74711997  0.03693795     1.04100
Fe3029     Fe  0.79306139  0.89127620  0.01474089     1.65800
Fe3030     Fe  0.76849064  0.87862560  0.08494984     1.73200
Fe3031     Fe  0.83321488  0.91172187  0.07600516     1.54400
O3032       O  0.84689840  0.89560035  0.04555043    -0.80500
O3033       O  0.78167262  0.91067137  0.11013562    -0.78800
O3034       O  0.81788990  0.87821686  0.00927690    -0.83000
O3035       O  0.82152764  0.92848514  0.00779224    -0.77900
O3036       O  0.82569460  0.88206402  0.10496462    -0.79700
O3037       O  0.74934666  0.89191210  0.06035947    -0.82400
C3038       C  0.83886183  0.94643491  0.02309034     0.98300
C3039       C  0.83814253  0.88217173  0.02213533     1.05800
O3040       O  0.79832771  0.89393166  0.05854179    -1.11400
O3041       O  0.75190618  0.84495236  0.06269616    -0.73800
O3042       O  0.76364160  0.85355594  0.01523952    -0.77300
O3043       O  0.84452623  0.94319376  0.04928157    -0.78000
C3044       C  0.75059690  0.83819074  0.03583087     0.97300
O3045       O  0.76719815  0.90383327  0.01546545    -0.76000
O3046       O  0.78368783  0.86325178  0.11308378    -0.81200
C3047       C  0.80343045  0.92824880  0.11841100     0.99900
C3048       C  0.80531763  0.86550770  0.11784216     1.05800
O3049       O  0.82425131  0.93038005  0.10897735    -0.76800
C3050       C  0.75109368  0.90168497  0.03499501     1.04100
Fe3051     Fe  0.71884891  0.78099189  0.24022282     1.65800
Fe3052     Fe  0.72940227  0.76887583  0.31120834     1.73200
Fe3053     Fe  0.74977979  0.74813845  0.25066017     1.54400
O3054       O  0.72087732  0.72716787  0.22005437    -0.80500
O3055       O  0.76704718  0.77972962  0.31817954    -0.78800
O3056       O  0.70107237  0.74918957  0.21417081    -0.83000
O3057       O  0.75078816  0.79748433  0.21395002    -0.77900
O3058       O  0.73097810  0.71801884  0.27981992    -0.79700
O3059       O  0.74029246  0.80694860  0.31011506    -0.82400
C3060       C  0.76905365  0.79391695  0.20768201     0.98300
C3061       C  0.70356676  0.73027409  0.20855161     1.05800
O3062       O  0.73268648  0.76594941  0.26743703    -1.11400
O3063       O  0.69114434  0.75855605  0.30969993    -0.73800
O3064       O  0.68524752  0.76679700  0.26307323    -0.77300
O3065       O  0.77124375  0.77609627  0.21901149    -0.78000
C3066       C  0.67721662  0.75935246  0.28922867     0.97300
O3067       O  0.73461356  0.81446740  0.26314790    -0.76000
O3068       O  0.71801437  0.73139912  0.31866844    -0.81200
C3069       C  0.78421863  0.77776047  0.30430855     0.99900
C3070       C  0.71996128  0.71430741  0.30494686     1.05800
O3071       O  0.78041282  0.76672244  0.27926433    -0.76800
C3072       C  0.74112004  0.82166850  0.28975238     1.04100
Fe3073     Fe  0.88477624  0.61355426  0.90630136     1.65800
Fe3074     Fe  0.89476890  0.60133595  0.97747968     1.73200
Fe3075     Fe  0.91646217  0.58154840  0.91730384     1.54400
O3076       O  0.88840779  0.56090103  0.88568478    -0.80500
O3077       O  0.93233487  0.61292176  0.98519411    -0.78800
O3078       O  0.86704666  0.58152628  0.88081325    -0.83000
O3079       O  0.91662471  0.62989447  0.87958746    -0.77900
O3080       O  0.89735696  0.55098918  0.94565526    -0.79700
O3081       O  0.90514401  0.63945875  0.97626588    -0.82400
C3082       C  0.93550641  0.62706235  0.87422576     0.98300
C3083       C  0.87051548  0.56330331  0.87460202     1.05800
O3084       O  0.89866315  0.59873239  0.93376603    -1.11400
O3085       O  0.85640532  0.59011564  0.97539933    -0.73800
O3086       O  0.85102170  0.59954246  0.92915040    -0.77300
O3087       O  0.93837736  0.61002105  0.88655902    -0.78000
C3088       C  0.84268663  0.59135594  0.95503400     0.97300
O3089       O  0.90089840  0.64713277  0.92886188    -0.76000
O3090       O  0.88417215  0.56389808  0.98478414    -0.81200
C3091       C  0.94968575  0.61102958  0.97175918     0.99900
C3092       C  0.88635719  0.54701362  0.97080308     1.05800
O3093       O  0.94629046  0.59991307  0.94684651    -0.76800
C3094       C  0.90701320  0.65438725  0.95551398     1.04100
Fe3095     Fe  0.95868562  0.72579569  0.68228250     1.65800
Fe3096     Fe  0.93527458  0.71202153  0.75319018     1.73200
Fe3097     Fe  0.49976980  0.74551675  0.74297283     1.54400
O3098       O  0.51152993  0.72736325  0.71394594    -0.80500
O3099       O  0.95008479  0.74274091  0.78126126    -0.78800
O3100       O  0.98576247  0.71560297  0.67436073    -0.83000
O3101       O  0.98505422  0.76345401  0.67622138    -0.77900
O3102       O  0.49227935  0.71709870  0.77410968    -0.79700
O3103       O  0.91725832  0.72798863  0.73193693    -0.82400
C3104       C  0.50426325  0.78036297  0.69016915     0.98300
C3105       C  0.50460002  0.71707405  0.68849066     1.05800
O3106       O  0.96464734  0.72777952  0.72606967    -1.11400
O3107       O  0.91650663  0.67949043  0.72858421    -0.73800
O3108       O  0.93115444  0.68754897  0.68206848    -0.77300
O3109       O  0.51189483  0.77616737  0.71462400    -0.78000
C3110       C  0.91646125  0.67257731  0.70200384     0.97300
O3111       O  0.93080043  0.73596498  0.68493362    -0.76000
O3112       O  0.94983366  0.69404973  0.77752800    -0.81200
C3113       C  0.97170067  0.76213645  0.78640422     0.99900
C3114       C  0.97189004  0.69828391  0.78423355     1.05800
O3115       O  0.99217084  0.76604873  0.77396263    -0.76800
C3116       C  0.91689424  0.73600411  0.70610736     1.04100
Fe3117     Fe  0.89614515  0.78704421  0.97545815     1.65800
Fe3118     Fe  0.88466809  0.76411978  0.90496282     1.73200
Fe3119     Fe  0.91740619  0.82800210  0.91543046     1.54400
O3120       O  0.90190811  0.84153661  0.94677589    -0.80500
O3121       O  0.91811991  0.77748152  0.88208916    -0.78800
O3122       O  0.88263197  0.81139940  0.98130022    -0.83000
O3123       O  0.93344878  0.81541249  0.98296684    -0.77900
O3124       O  0.88734839  0.82118128  0.88775576    -0.79700
O3125       O  0.89622983  0.74365711  0.92991684    -0.82400
C3126       C  0.95171910  0.83255257  0.96772992     0.98300
C3127       C  0.88760681  0.83221771  0.96951126     1.05800
O3128       O  0.89945917  0.79312143  0.93202057    -1.11400
O3129       O  0.84986874  0.74798932  0.92563798    -0.73800
O3130       O  0.85822062  0.75773490  0.97362372    -0.77300
O3131       O  0.94884415  0.83822542  0.94147034    -0.78000
C3132       C  0.84280061  0.74576800  0.95256456     0.97300
O3133       O  0.90914266  0.76158192  0.97445944    -0.76000
O3134       O  0.87100211  0.78041116  0.87598537    -0.81200
C3135       C  0.93509330  0.79926571  0.87334891     0.99900
C3136       C  0.87201653  0.80151085  0.87318896     1.05800
O3137       O  0.93583894  0.81954966  0.88160744    -0.76800
C3138       C  0.90630431  0.74525797  0.95508344     1.04100
Fe3139     Fe  0.70830696  0.60174625  0.97638051     1.65800
Fe3140     Fe  0.73109158  0.61306638  0.90513315     1.73200
Fe3141     Fe  0.66660735  0.57991939  0.91647184     1.54400
O3142       O  0.65482121  0.55031507  0.94651322    -0.80500
O3143       O  0.71625910  0.63063904  0.88062598    -0.78800
O3144       O  0.68281155  0.56383273  0.98388696    -0.83000
O3145       O  0.68041908  0.61077865  0.98426611    -0.77900
O3146       O  0.67407104  0.55836777  0.88634795    -0.79700
O3147       O  0.75044099  0.64612885  0.92856726    -0.82400
C3148       C  0.66171327  0.60933945  0.97001610     0.98300
C3149       C  0.66294667  0.54663235  0.97096685     1.05800
O3150       O  0.70192845  0.59817975  0.93272758    -1.11400
O3151       O  0.74925047  0.59727795  0.92682325    -0.73800
O3152       O  0.73731016  0.59323333  0.97442110    -0.77300
O3153       O  0.65497243  0.59909826  0.94448384    -0.78000
C3154       C  0.75071465  0.59177331  0.95361241     0.97300
O3155       O  0.73471854  0.64036256  0.97453932    -0.76000
O3156       O  0.71592354  0.58213427  0.87773122    -0.81200
C3157       C  0.69411114  0.62621408  0.87402024     0.99900
C3158       C  0.69442140  0.56249354  0.87322487     1.05800
O3159       O  0.67377114  0.60742692  0.88430537    -0.76800
C3160       C  0.74987636  0.65435093  0.95424122     1.04100
Fe3161     Fe  0.77141865  0.53970855  0.68350172     1.65800
Fe3162     Fe  0.78426412  0.56387294  0.75301838     1.73200
Fe3163     Fe  0.75151021  0.00013187  0.74458517     1.54400
O3164       O  0.72384886  0.98649105  0.71152290    -0.80500
O3165       O  0.80545301  0.55121792  0.77420164    -0.78800
O3166       O  0.73260420  0.51721324  0.67978458    -0.83000
O3167       O  0.77698166  0.50935571  0.67575967    -0.77900
O3168       O  0.72751123  0.00781254  0.76987843    -0.79700
O3169       O  0.81546003  0.58450191  0.72571593    -0.82400
C3170       C  0.78029861  0.99335037  0.69336933     0.98300
C3171       C  0.71874556  0.99670010  0.69008869     1.05800
O3172       O  0.76909330  0.53453924  0.72685507    -1.11400
O3173       O  0.76424385  0.57857310  0.73333837    -0.73800
O3174       O  0.76639206  0.57099193  0.68521624    -0.77300
O3175       O  0.77373872  0.98985121  0.72059701    -0.78000
C3176       C  0.76186118  0.58225556  0.70609648     0.97300
O3177       O  0.81067213  0.56322999  0.68359983    -0.76000
O3178       O  0.75523540  0.54773107  0.78431585    -0.81200
C3179       C  0.79910399  0.52966657  0.78489748     0.99900
C3180       C  0.73385689  0.52727619  0.78648817     1.05800
O3181       O  0.77686502  0.00889033  0.78014255    -0.76800
C3182       C  0.82407677  0.58130191  0.70133496     1.04100
Fe3183     Fe  0.78270963  0.71378406  0.75660632     1.65800
Fe3184     Fe  0.77266653  0.72601057  0.68552425     1.73200
Fe3185     Fe  0.75130566  0.74604941  0.74559421     1.54400
O3186       O  0.73081468  0.71854039  0.77789753    -0.80500
O3187       O  0.78480649  0.76355133  0.67863131    -0.78800
O3188       O  0.74950538  0.69527938  0.78055149    -0.83000
O3189       O  0.79823161  0.74466629  0.78434763    -0.77900
O3190       O  0.72053693  0.72622586  0.71774519    -0.79700
O3191       O  0.81082893  0.73593789  0.68789995    -0.82400
C3192       C  0.79670798  0.76435407  0.78832659     0.98300
C3193       C  0.73188083  0.69961410  0.78761257     1.05800
O3194       O  0.76887780  0.72864566  0.72915746    -1.11400
O3195       O  0.76112140  0.68787558  0.68633843    -0.73800
O3196       O  0.76937860  0.68105940  0.73252828    -0.77300
O3197       O  0.78050680  0.76817015  0.77516425    -0.78000
C3198       C  0.76181665  0.67362384  0.70625789     0.97300
O3199       O  0.81733366  0.73036684  0.73534191    -0.76000
O3200       O  0.73516906  0.71578290  0.67769479    -0.81200
C3201       C  0.78137274  0.78000951  0.69156442     0.99900
C3202       C  0.71739016  0.71631483  0.69210160     1.05800
O3203       O  0.76895950  0.77569016  0.71575133    -0.76800
C3204       C  0.82528250  0.73702099  0.70892856     1.04100
C3205       C  0.76933060  0.62037665  0.67741247     0.24700
C3206       C  0.75530420  0.60180935  0.69909143    -0.23400
C3207       C  0.73881136  0.60510191  0.71820776     0.19600
C3208       C  0.73879255  0.62787427  0.71827865     0.24700
C3209       C  0.75500624  0.64755108  0.69897180    -0.23300
C3210       C  0.76918345  0.64321440  0.67738618     0.19600
F3211       F  0.78533035  0.66220669  0.65887133    -0.13300
F3212       F  0.78553283  0.61778982  0.65875092    -0.15600
F3213       F  0.72461736  0.63156661  0.73896665    -0.15600
F3214       F  0.72426068  0.58706576  0.73850906    -0.13300
C3215       C  0.68817700  0.63714468  0.82273713     0.24700
C3216       C  0.69304762  0.64397284  0.85286667    -0.23400
C3217       C  0.70472489  0.66973619  0.86083628     0.19600
C3218       C  0.71452293  0.68857195  0.83887068     0.24700
C3219       C  0.71265890  0.68173233  0.80876404    -0.23300
C3220       C  0.69797573  0.65598346  0.80076319     0.19600
F3221       F  0.69564075  0.64907322  0.77168072    -0.13300
F3222       F  0.67700908  0.61239800  0.81451443    -0.15600
F3223       F  0.72876069  0.71330904  0.84710338    -0.15600
F3224       F  0.70922763  0.67665279  0.88991782    -0.13300
C3225       C  0.69111140  0.54765362  0.82122737     0.24700
C3226       C  0.69426974  0.54437546  0.85151684    -0.23400
C3227       C  0.70555917  0.53006171  0.85959760     0.19600
C3228       C  0.71621772  0.52170518  0.83781002     0.24700
C3229       C  0.71528241  0.52722890  0.80770778    -0.23300
C3230       C  0.70137075  0.53889723  0.79943691     0.19600
F3231       F  0.70001751  0.54408556  0.77038548    -0.13300
F3232       F  0.68087787  0.56196157  0.81290111    -0.15600
F3233       F  0.72968732  0.51057104  0.84629106    -0.15600
F3234       F  0.70877175  0.52668542  0.88877612    -0.13300
C3235       C  0.77403855  0.69901634  0.93745940     0.24700
C3236       C  0.76877976  0.68117987  0.96006860    -0.23400
C3237       C  0.78553960  0.68799196  0.98437819     0.19600
C3238       C  0.80898617  0.71094971  0.98389204     0.24700
C3239       C  0.81572795  0.72710049  0.95902220    -0.23300
C3240       C  0.79724752  0.72185551  0.93701936     0.19600
F3241       F  0.80258958  0.73778714  0.91357602    -0.13300
F3242       F  0.75774685  0.69324229  0.91420535    -0.15600
F3243       F  0.82618046  0.71582423  0.00589028    -0.15600
F3244       F  0.78075280  0.67115561  0.00662728    -0.13300
C3245       C  0.84127033  0.79637384  0.80019172     0.24700
C3246       C  0.81542367  0.78331366  0.80885538    -0.23400
C3247       C  0.80908643  0.78255633  0.83905003     0.19600
C3248       C  0.82841968  0.79210439  0.86057802     0.24700
C3249       C  0.85409065  0.80221929  0.85198457    -0.23300
C3250       C  0.86054773  0.80561622  0.82168147     0.19600
F3251       F  0.88521693  0.81504787  0.81299423    -0.13300
F3252       F  0.84767255  0.79748379  0.77101702    -0.15600
F3253       F  0.82191964  0.78879137  0.88986289    -0.15600
F3254       F  0.78420777  0.76985202  0.84784325    -0.13300
C3255       C  0.85679991  0.61733903  0.67091489     0.24700
C3256       C  0.85081659  0.59994312  0.69427555    -0.23400
C3257       C  0.86947941  0.60439311  0.71556760     0.19600
C3258       C  0.89267761  0.62721501  0.71569230     0.24700
C3259       C  0.89744462  0.64609469  0.69469678    -0.23300
C3260       C  0.88015500  0.64043948  0.67109239     0.19600
F3261       F  0.88436875  0.65837630  0.65048788    -0.13300
F3262       F  0.83890238  0.61339085  0.65018233    -0.15600
F3263       F  0.90941832  0.63194319  0.73819309    -0.15600
F3264       F  0.86412594  0.58772749  0.73814069    -0.13300
C3265       C  0.88217513  0.73630806  0.67633055     0.24700
C3266       C  0.89838647  0.74451505  0.70126656    -0.23400
C3267       C  0.89311339  0.75620541  0.72498956     0.19600
C3268       C  0.87026381  0.75633264  0.72584017     0.24700
C3269       C  0.85224072  0.74482953  0.70291653    -0.23300
C3270       C  0.85910884  0.73645905  0.67714832     0.19600
F3271       F  0.84231922  0.72572768  0.65434134    -0.13300
F3272       F  0.88709929  0.72543426  0.65280891    -0.15600
F3273       F  0.86475944  0.76562825  0.75045235    -0.15600
F3274       F  0.90897246  0.76532187  0.74882261    -0.13300
C3275       C  0.97707350  0.77869213  0.83788994     0.24700
C3276       C  0.97214520  0.78051909  0.80782153    -0.23400
C3277       C  0.96092509  0.79488191  0.79978063     0.19600
C3278       C  0.95164718  0.80446964  0.82173698     0.24700
C3279       C  0.95376387  0.79989810  0.85188904    -0.23300
C3280       C  0.96801944  0.78847111  0.85984309     0.19600
F3281       F  0.97074920  0.78441377  0.88894205    -0.13300
F3282       F  0.98795697  0.76494086  0.84607967    -0.15600
F3283       F  0.93774683  0.81521339  0.81351368    -0.15600
F3284       F  0.95664395  0.79733397  0.77067814    -0.13300
C3285       C  0.79687997  0.56913466  0.94124132     0.24700
C3286       C  0.81623047  0.58458401  0.96141524    -0.23400
C3287       C  0.81140180  0.59817471  0.98318748     0.19600
C3288       C  0.78841755  0.59836282  0.98275952     0.24700
C3289       C  0.77020638  0.58502494  0.96047747    -0.23300
C3290       C  0.77398911  0.56932797  0.94078318     0.19600
F3291       F  0.75635265  0.55575124  0.91957340    -0.13300
F3292       F  0.80104632  0.55551921  0.92037629    -0.15600
F3293       F  0.78541059  0.61404804  0.00164007    -0.15600
F3294       F  0.83013884  0.61376996  0.00234671    -0.13300
C3295       C  0.82684711  0.53078750  0.85925976     0.24700
C3296       C  0.85307823  0.54518632  0.85247294    -0.23400
C3297       C  0.86100032  0.54850990  0.82265406     0.19600
C3298       C  0.84284328  0.54042463  0.79990560     0.24700
C3299       C  0.81664952  0.52887482  0.80681336    -0.23300
C3300       C  0.80865302  0.52253923  0.83648426     0.19600
F3301       F  0.78209964  0.01331462  0.84648521    -0.13300
F3302       F  0.81891077  0.52725717  0.88805189    -0.15600
F3303       F  0.85089270  0.54597379  0.77124851    -0.15600
F3304       F  0.88625744  0.56249685  0.81567268    -0.13300
C3305       C  0.92814020  0.69928636  0.93940917     0.24700
C3306       C  0.91515333  0.68115730  0.96182498    -0.23400
C3307       C  0.90511409  0.68768966  0.98634360     0.19600
C3308       C  0.90476239  0.71049105  0.98607126     0.24700
C3309       C  0.91437940  0.72670851  0.96127940    -0.23300
C3310       C  0.92749515  0.72171535  0.93897070     0.19600
F3311       F  0.93771466  0.73751969  0.91528597    -0.13300
F3312       F  0.93933341  0.69416183  0.91630967    -0.15600
F3313       F  0.89240421  0.71519594  0.00818250    -0.15600
F3314       F  0.89303975  0.67084010  0.00872416    -0.13300
C3315       C  0.96863519  0.67050350  0.85886098     0.24700
C3316       C  0.95410490  0.64448609  0.85209858    -0.23400
C3317       C  0.95171441  0.63672280  0.82225988     0.19600
C3318       C  0.96091651  0.65482903  0.79939650     0.24700
C3319       C  0.97279353  0.68085758  0.80616879    -0.23300
C3320       C  0.97803883  0.68860547  0.83601607     0.19600
F3321       F  0.98922480  0.71359222  0.84312160    -0.13300
F3322       F  0.97131088  0.67839466  0.88757947    -0.15600
F3323       F  0.95588913  0.64692244  0.77066075    -0.15600
F3324       F  0.93776511  0.61170069  0.81518051    -0.13300
C3325       C  0.85431220  0.97545865  0.97871439     0.24700
C3326       C  0.85247709  0.97227103  0.00986486    -0.23400
C3327       C  0.86261856  0.99400588  0.02811222     0.19600
C3328       C  0.87500018  0.51861330  0.01543749     0.24700
C3329       C  0.87541431  0.52151481  0.98429741    -0.23300
C3330       C  0.86489187  0.49975039  0.96614765     0.19600
F3331       F  0.86509272  0.50177386  0.93603445    -0.13300
F3332       F  0.84527156  0.95508099  0.96026635    -0.15600
F3333       F  0.88577311  0.53923152  0.03359160    -0.15600
F3334       F  0.86117652  0.99182596  0.05823238    -0.13300
C3335       C  0.87778285  0.88361302  0.00305589     0.24700
C3336       C  0.85142819  0.86980014  0.00933985    -0.23400
C3337       C  0.83720659  0.84387471  0.00210497     0.19600
C3338       C  0.84916014  0.83181366  0.98919514     0.24700
C3339       C  0.87543968  0.84557443  0.98262447    -0.23300
C3340       C  0.88968153  0.87162451  0.98935573     0.19600
F3341       F  0.91512592  0.88525714  0.98326997    -0.13300
F3342       F  0.89176474  0.90877823  0.00939253    -0.15600
F3343       F  0.83492006  0.80671840  0.98247483    -0.15600
F3344       F  0.81170796  0.83010919  0.00795164    -0.13300
C3345       C  0.79590698  0.82250197  0.13345681     0.24700
C3346       C  0.80599135  0.84832644  0.14030852    -0.23400
C3347       C  0.80967078  0.85594991  0.17023007     0.19600
C3348       C  0.80075029  0.83779382  0.19293171     0.24700
C3349       C  0.78788215  0.81177382  0.18603355    -0.23300
C3350       C  0.78697773  0.80427657  0.15625834     0.19600
F3351       F  0.77469124  0.77925311  0.14903733    -0.13300
F3352       F  0.79235489  0.81474429  0.10463497    -0.15600
F3353       F  0.80206864  0.84543757  0.22159733    -0.15600
F3354       F  0.81901637  0.88069747  0.17739365    -0.13300
C3355       C  0.52127912  0.64417127  0.98099488     0.24700
C3356       C  0.52383523  0.64658141  0.01212771    -0.23400
C3357       C  0.50179425  0.63665490  0.03005372     0.19600
C3358       C  0.97754477  0.62468501  0.01689404     0.24700
C3359       C  0.97506442  0.62261260  0.98569736    -0.23300
C3360       C  0.99712863  0.63241285  0.96786651     0.19600
F3361       F  0.99545140  0.63137944  0.93769948    -0.13300
F3362       F  0.54218651  0.65331361  0.96305826    -0.15600
F3363       F  0.95658141  0.61527739  0.03478173    -0.15600
F3364       F  0.50364874  0.63919503  0.06013715    -0.13300
C3365       C  0.63888733  0.63361711  0.96615624     0.24700
C3366       C  0.64752396  0.62052617  0.98374816    -0.23400
C3367       C  0.64346977  0.61918183  0.01472875     0.19600
C3368       C  0.63130970  0.63103730  0.02794497     0.24700
C3369       C  0.62339329  0.64487260  0.01045662    -0.23300
C3370       C  0.62703196  0.64572486  0.97934069     0.19600
F3371       F  0.61922149  0.65841021  0.96152008    -0.13300
F3372       F  0.64295903  0.63569825  0.93627905    -0.15600
F3373       F  0.62817138  0.62973011  0.05795835    -0.15600
F3374       F  0.65130457  0.60636471  0.03227374    -0.13300
C3375       C  0.69132816  0.78206755  0.00548156     0.24700
C3376       C  0.68505587  0.76548802  0.02981912    -0.23400
C3377       C  0.70377661  0.77031714  0.05123494     0.19600
C3378       C  0.72703246  0.79304861  0.05078224     0.24700
C3379       C  0.73181703  0.81146674  0.02907985    -0.23300
C3380       C  0.71471888  0.80510043  0.00512299     0.19600
F3381       F  0.71911326  0.82233066  0.98349601    -0.13300
F3382       F  0.67366271  0.77756028  0.98419735    -0.15600
F3383       F  0.74377401  0.79819288  0.07341326    -0.15600
F3384       F  0.69851388  0.75415640  0.07436986    -0.13300
C3385       C  0.65943135  0.69781733  0.19427636     0.24700
C3386       C  0.68555682  0.71199876  0.18687049    -0.23400
C3387       C  0.69297617  0.71446962  0.15689224     0.19600
C3388       C  0.67442708  0.70543789  0.13449842     0.24700
C3389       C  0.64836176  0.69389310  0.14190749    -0.23300
C3390       C  0.64087161  0.68877624  0.17185874     0.19600
F3391       F  0.61577353  0.67778553  0.17946402    -0.13300
F3392       F  0.65194210  0.69507544  0.22320240    -0.15600
F3393       F  0.68194143  0.71024428  0.10560349    -0.15600
F3394       F  0.71809851  0.72839299  0.14928864    -0.13300
C3395       C  0.60943198  0.73945919  0.27344880     0.24700
C3396       C  0.60570575  0.75509694  0.29332553    -0.23400
C3397       C  0.62343521  0.76738629  0.31645242     0.19600
C3398       C  0.64594498  0.76627474  0.31751112     0.24700
C3399       C  0.65082218  0.75289932  0.29548437    -0.23300
C3400       C  0.63182539  0.73843084  0.27449682     0.19600
F3401       F  0.63602204  0.72511043  0.25325971    -0.13300
F3402       F  0.59224864  0.72663211  0.25154475    -0.15600
F3403       F  0.66425680  0.78074929  0.33769723    -0.15600
F3404       F  0.62044445  0.78273904  0.33589623    -0.13300
C3405       C  0.53530415  0.70790607  0.13350104     0.24700
C3406       C  0.54848434  0.69538610  0.14141271    -0.23400
C3407       C  0.54966488  0.68995836  0.17153346     0.19600
C3408       C  0.54040206  0.69956776  0.19358512     0.24700
C3409       C  0.53001021  0.71471038  0.18564742    -0.23300
C3410       C  0.52630870  0.71770229  0.15548262     0.19600
F3411       F  0.01568505  0.73161498  0.14745121    -0.13300
F3412       F  0.53335687  0.71272777  0.10446335    -0.15600
F3413       F  0.54402401  0.69639562  0.22269762    -0.15600
F3414       F  0.56241350  0.67800994  0.17973115    -0.13300
C3415       C  0.50484716  0.85923119  0.02467591     0.24700
C3416       C  0.52671532  0.87096603  0.00643271    -0.23400
C3417       C  0.52378481  0.87056280  0.97535898     0.19600
C3418       C  0.49942358  0.85838080  0.96273767     0.24700
C3419       C  0.97749465  0.84631367  0.98110870    -0.23300
C3420       C  0.98047137  0.84713639  0.01224410     0.19600
F3421       F  0.95982966  0.83605887  0.03064780    -0.13300
F3422       F  0.50699947  0.85883326  0.05472682    -0.15600
F3423       F  0.49744672  0.85790249  0.93260074    -0.17400
F3424       F  0.54451575  0.88209868  0.95711094    -0.13300
C3425       C  0.64978644  0.51829294  0.01599044     0.24700
C3426       C  0.64889344  0.52113251  0.98492585    -0.23400
C3427       C  0.63502985  0.49925953  0.96726715     0.19600
C3428       C  0.62908159  0.97506590  0.97540862     0.24700
C3429       C  0.62798961  0.97189854  0.00652447    -0.23300
C3430       C  0.63800201  0.99347463  0.02491365     0.19600
F3431       F  0.63767588  0.99115118  0.05499479    -0.13300
F3432       F  0.66251572  0.53890186  0.03391604    -0.15600
F3433       F  0.61931978  0.95463094  0.95698104    -0.15600
F3434       F  0.63368715  0.50109779  0.93728496    -0.13300
C3435       C  0.59816810  0.80568589  0.00262944     0.24700
C3436       C  0.58736598  0.81237259  0.02615407    -0.23400
C3437       C  0.57357328  0.79447587  0.04844828     0.19600
C3438       C  0.57367123  0.77181554  0.04967994     0.24700
C3439       C  0.58733349  0.76651249  0.02844774    -0.23300
C3440       C  0.59807767  0.78268204  0.00373164     0.19600
F3441       F  0.61118215  0.77779240  0.98274826    -0.13300
F3442       F  0.61150577  0.82263205  0.98074955    -0.15600
F3443       F  0.56254849  0.75620172  0.07331899    -0.15600
F3444       F  0.56240598  0.80022184  0.07098395    -0.13300
C3445       C  0.55031036  0.85609084  0.16679921     0.24700
C3446       C  0.54865468  0.84740237  0.13749207    -0.23400
C3447       C  0.53456340  0.82114135  0.13188948     0.19600
C3448       C  0.52501618  0.80378804  0.15553242     0.24700
C3449       C  0.52980022  0.81253935  0.18506273    -0.23300
C3450       C  0.54109263  0.83876458  0.19046429     0.19600
F3451       F  0.54542609  0.84769255  0.21881075    -0.13300
F3452       F  0.56364933  0.88135071  0.17278265    -0.15600
F3453       F  0.01414124  0.77860304  0.14939661    -0.15600
F3454       F  0.53206742  0.81233044  0.10362613    -0.13300
C3455       C  0.69304834  0.90017959  0.00429985     0.24700
C3456       C  0.68676094  0.91043168  0.02877087    -0.23400
C3457       C  0.70521277  0.92358262  0.05083244     0.19600
C3458       C  0.72799774  0.92331031  0.05077675     0.24700
C3459       C  0.73275998  0.91001679  0.02861717    -0.23300
C3460       C  0.71607302  0.89997550  0.00424144     0.19600
F3461       F  0.72047397  0.88724758  0.98240936    -0.13300
F3462       F  0.67568512  0.88762932  0.98246333    -0.15600
F3463       F  0.74429994  0.93389179  0.07400623    -0.15600
F3464       F  0.70010610  0.93457940  0.07406422    -0.13300
C3465       C  0.73582120  0.87552973  0.32188881     0.24700
C3466       C  0.74597275  0.89271692  0.29806611    -0.23400
C3467       C  0.75985246  0.88886607  0.27569510     0.19600
C3468       C  0.76109330  0.86678165  0.27514268     0.24700
C3469       C  0.74818133  0.84797127  0.29681713    -0.23300
C3470       C  0.73696154  0.85316018  0.32130456     0.19600
F3471       F  0.72437725  0.83530965  0.34259752    -0.13300
F3472       F  0.72217616  0.87882842  0.34364859    -0.15600
F3473       F  0.77272877  0.86264177  0.25171947    -0.15600
F3474       F  0.76998173  0.90533472  0.25262086    -0.13300
C3475       C  0.79147766  0.95989016  0.13382748     0.24700
C3476       C  0.80339421  0.94591763  0.14078992    -0.23400
C3477       C  0.80801293  0.94315600  0.17074295     0.19600
C3478       C  0.79818270  0.95164744  0.19337380     0.24700
C3479       C  0.78350650  0.96281600  0.18631465    -0.23300
C3480       C  0.78151691  0.96824809  0.15644920     0.19600
F3481       F  0.76741519  0.97896343  0.14902052    -0.13300
F3482       F  0.78741444  0.96333578  0.10498613    -0.15600
F3483       F  0.80121623  0.94716724  0.22219042    -0.15600
F3484       F  0.81937945  0.92967265  0.17808423    -0.13300
C3485       C  0.61811833  0.85434501  0.32234260     0.24700
C3486       C  0.60054333  0.84860726  0.29918010    -0.23400
C3487       C  0.60505180  0.86709490  0.27782711     0.19600
C3488       C  0.62841228  0.88974198  0.27718034     0.24700
C3489       C  0.64758173  0.89404608  0.29780935    -0.23300
C3490       C  0.64165482  0.87710915  0.32171739     0.19600
F3491       F  0.65976530  0.88087111  0.34205501    -0.13300
F3492       F  0.61402120  0.83653791  0.34307657    -0.15600
F3493       F  0.63326919  0.90625591  0.25454922    -0.15600
F3494       F  0.58799204  0.86195537  0.25558665    -0.13300
C3495       C  0.65905573  0.95369109  0.19198460     0.24700
C3496       C  0.68530750  0.96545522  0.18536685    -0.23400
C3497       C  0.69332908  0.97008064  0.15555457     0.19600
C3498       C  0.67524769  0.96073247  0.13263364     0.24700
C3499       C  0.64900617  0.94653912  0.13929848    -0.23300
C3500       C  0.64094814  0.94414979  0.16904522     0.19600
F3501       F  0.61569035  0.93008974  0.17598547    -0.13300
F3502       F  0.65096111  0.94913940  0.22069976    -0.15600
F3503       F  0.68333772  0.96323069  0.10397793    -0.15600
F3504       F  0.71855325  0.98096238  0.14867305    -0.13300
C3505       C  0.81194764  0.85102351  0.68302167     0.24700
C3506       C  0.81557426  0.85397484  0.65203580    -0.23400
C3507       C  0.80708010  0.83241770  0.63395580     0.19600
C3508       C  0.79581364  0.80830328  0.64677602     0.24700
C3509       C  0.79249190  0.80535552  0.67787508    -0.23300
C3510       C  0.80042587  0.82694463  0.69582306     0.19600
F3511       F  0.79798017  0.82489767  0.72590795    -0.13300
F3512       F  0.81964417  0.87153307  0.70098612    -0.15600
F3513       F  0.78819418  0.78785982  0.62872642    -0.15600
F3514       F  0.81070586  0.83476989  0.60401488    -0.13300
C3515       C  0.81724146  0.95913641  0.68480807     0.24700
C3516       C  0.81490972  0.95373611  0.65400690    -0.23400
C3517       C  0.79980615  0.96028168  0.63666223     0.19600
C3518       C  0.78817885  0.97275416  0.64956684     0.24700
C3519       C  0.79121157  0.97877233  0.68009636    -0.23300
C3520       C  0.80553208  0.97148739  0.69765052     0.19600
F3521       F  0.80913555  0.97722463  0.72712625    -0.13300
F3522       F  0.83107930  0.95271030  0.70269978    -0.15600
F3523       F  0.77389120  0.97891680  0.63211965    -0.15600
F3524       F  0.79683900  0.95535250  0.60700030    -0.13300
C3525       C  0.83689982  0.80380622  0.36198884     0.24700
C3526       C  0.85887577  0.81347971  0.34399102    -0.23400
C3527       C  0.85607640  0.81015839  0.31291769     0.19600
C3528       C  0.83180601  0.79806931  0.30003526     0.24700
C3529       C  0.80983043  0.78911105  0.31796134    -0.23300
C3530       C  0.81262157  0.79183890  0.34910355     0.19600
F3531       F  0.79183519  0.78297672  0.36719102    -0.13300
F3532       F  0.83888443  0.80681518  0.39200924    -0.15600
F3533       F  0.82993703  0.79604654  0.26991344    -0.15600
F3534       F  0.87687430  0.81867312  0.29489764    -0.13300
C3535       C  0.96878666  0.80216681  0.36112822     0.24700
C3536       C  0.95853338  0.81361095  0.34321040    -0.23400
C3537       C  0.95886066  0.81123320  0.31208657     0.19600
C3538       C  0.96991084  0.79831972  0.29904517     0.24700
C3539       C  0.98106919  0.78758717  0.31685229    -0.23300
C3540       C  0.98003586  0.78936749  0.34812844     0.19600
F3541       F  0.99016918  0.77901017  0.36627455    -0.13300
F3542       F  0.96892119  0.80427315  0.39124406    -0.15600
F3543       F  0.97040263  0.79717157  0.26886918    -0.15600
F3544       F  0.94841408  0.82142755  0.29416041    -0.13300
C3545       C  0.87111268  0.87735400  0.46784735     0.24700
C3546       C  0.88502478  0.86522727  0.47396283    -0.23400
C3547       C  0.88648761  0.85848952  0.50344718     0.19600
C3548       C  0.87686479  0.86655999  0.52676866     0.24700
C3549       C  0.86545192  0.88115300  0.52077071    -0.23300
C3550       C  0.86129551  0.88519477  0.49110970     0.19600
F3551       F  0.85036931  0.89927391  0.48479369    -0.13300
F3552       F  0.86884574  0.88339323  0.43944544    -0.15600
F3553       F  0.88080269  0.86221451  0.55532945    -0.15600
F3554       F  0.89977145  0.84671046  0.50991480    -0.13300
C3555       C  0.70771608  0.68626552  0.35005329     0.24700
C3556       C  0.70877200  0.68892785  0.31882930    -0.23400
C3557       C  0.69867381  0.66704100  0.30096063     0.19600
C3558       C  0.68735681  0.64300855  0.31396855     0.24700
C3559       C  0.68612574  0.64030721  0.34514857    -0.23300
C3560       C  0.69665172  0.66218116  0.36307993     0.19600
F3561       F  0.69534200  0.66023698  0.39322482    -0.13300
F3562       F  0.71751721  0.70698389  0.36803407    -0.15600
F3563       F  0.67758828  0.62230921  0.29595731    -0.15600
F3564       F  0.69891674  0.66880033  0.27081641    -0.13300
C3565       C  0.68938572  0.53929397  0.31400151     0.24700
C3566       C  0.68786057  0.54047738  0.34522617    -0.23400
C3567       C  0.69845797  0.52928015  0.36307973     0.19600
C3568       C  0.70958640  0.51643567  0.34996275     0.24700
C3569       C  0.71060543  0.51482909  0.31877735    -0.23300
C3570       C  0.70073691  0.52667564  0.30092573     0.19600
F3571       F  0.70106813  0.52512152  0.27077481    -0.13300
F3572       F  0.67973047  0.55022870  0.29602401    -0.15600
F3573       F  0.71938727  0.50555889  0.36780020    -0.15600
F3574       F  0.69711005  0.52980402  0.39323600    -0.13300
C3575       C  0.53945230  0.93859327  0.37791116     0.24700
C3576       C  0.51963438  0.93508560  0.35884613    -0.23400
C3577       C  0.52463512  0.95312691  0.33653097     0.19600
C3578       C  0.54813612  0.97599330  0.33606400     0.24700
C3579       C  0.56667049  0.98070800  0.35775157    -0.23300
C3580       C  0.56284883  0.96127203  0.37734568     0.19600
F3581       F  0.58078535  0.96536815  0.39807476    -0.13300
F3582       F  0.53529394  0.92104301  0.39896489    -0.15600
F3583       F  0.55142889  0.99469617  0.31711870    -0.15600
F3584       F  0.00573197  0.95017326  0.31780427    -0.13300
C3585       C  0.52026244  0.80951745  0.64633679     0.24700
C3586       C  0.51802081  0.80612940  0.67738751    -0.23400
C3587       C  0.52783055  0.82752644  0.69599399     0.19600
C3588       C  0.53948387  0.85188946  0.68378348     0.24700
C3589       C  0.54178387  0.85536414  0.65264409    -0.23300
C3590       C  0.53207703  0.83385950  0.63407990     0.19600
F3591       F  0.53319449  0.83625161  0.60398194    -0.13300
F3592       F  0.51104726  0.78920760  0.62775555    -0.15600
F3593       F  0.54843945  0.87204692  0.70256485    -0.15600
F3594       F  0.52520452  0.82483778  0.72602339    -0.13300
C3595       C  0.65921366  0.94813864  0.65018644     0.24700
C3596       C  0.64333985  0.95861378  0.65372054    -0.23400
C3597       C  0.65263046  0.98159541  0.66948942     0.19600
C3598       C  0.67731908  0.99395220  0.68111314     0.24700
C3599       C  0.69294950  0.98338896  0.67768963    -0.23300
C3600       C  0.68382598  0.96038409  0.66238453     0.19600
F3601       F  0.69895135  0.95011455  0.65877674    -0.13300
F3602       F  0.65078251  0.92588594  0.63543699    -0.15600
F3603       F  0.68701716  0.51889037  0.68894663    -0.15600
F3604       F  0.63805617  0.99247888  0.67311121    -0.13300
C3605       C  0.97634957  0.92692155  0.65974129     0.24700
C3606       C  0.98278241  0.91639585  0.63574526    -0.23400
C3607       C  0.96449566  0.90280946  0.61373046     0.19600
C3608       C  0.94150482  0.90270183  0.61337869     0.24700
C3609       C  0.93650134  0.91625266  0.63501753    -0.23300
C3610       C  0.95316436  0.92682851  0.65940127     0.19600
F3611       F  0.94860514  0.93980448  0.68076757    -0.13300
F3612       F  0.49366704  0.93988022  0.68138322    -0.15600
F3613       F  0.92525102  0.89150920  0.59020189    -0.15600
F3614       F  0.97006239  0.89186561  0.59082773    -0.13300
C3615       C  0.63457811  0.50554413  0.52890683     0.24700
C3616       C  0.61881572  0.97973889  0.52216396    -0.23400
C3617       C  0.61622798  0.97113403  0.49269453     0.19600
C3618       C  0.62532139  0.98851723  0.46910334     0.24700
C3619       C  0.63899663  0.51603038  0.47622080    -0.23300
C3620       C  0.64422686  0.52371540  0.50610630     0.19600
F3621       F  0.65578918  0.54871908  0.51327178    -0.13300
F3622       F  0.63737545  0.51335941  0.55765946    -0.15600
F3623       F  0.62030355  0.97967428  0.44072689    -0.15600
F3624       F  0.60240665  0.94591974  0.48662364    -0.13300
C3625       C  0.52778089  0.88620639  0.49216073     0.24700
C3626       C  0.51911465  0.88198314  0.52174483    -0.23400
C3627       C  0.99283271  0.86666766  0.52747321     0.19600
C3628       C  0.97522911  0.85788418  0.50397759     0.24700
C3629       C  0.98383718  0.86475289  0.47455967    -0.23300
C3630       C  0.51018626  0.87767891  0.46873803     0.19600
F3631       F  0.51885903  0.88414745  0.44041276    -0.13300
F3632       F  0.55308438  0.90123195  0.48603700    -0.15600
F3633       F  0.94978313  0.84516255  0.51015587    -0.15600
F3634       F  0.98409737  0.86201955  0.55594991    -0.13300
C3635       C  0.66484747  0.69244290  0.63446048     0.24700
C3636       C  0.64282294  0.67997247  0.65238708    -0.23400
C3637       C  0.64549232  0.68027416  0.68352824     0.19600
C3638       C  0.66973329  0.69258585  0.69646925     0.24700
C3639       C  0.69178516  0.70453923  0.67850173    -0.23300
C3640       C  0.68911881  0.70450674  0.64739137     0.19600
F3641       F  0.71001965  0.71628050  0.62944531    -0.13300
F3642       F  0.66294887  0.69215899  0.60433303    -0.15600
F3643       F  0.67160422  0.69202481  0.72655260    -0.15600
F3644       F  0.62460820  0.66868826  0.70153615    -0.13300
C3645       C  0.54261801  0.68395208  0.68044480     0.24700
C3646       C  0.54316239  0.68144843  0.64933615    -0.23400
C3647       C  0.53206743  0.69193714  0.63110347     0.19600
C3648       C  0.51989212  0.70391702  0.64379114     0.24700
C3649       C  0.51874131  0.70578758  0.67493431    -0.23300
C3650       C  0.53057845  0.69602341  0.69310533     0.19600
F3651       F  0.52973084  0.69728835  0.72324834    -0.13300
F3652       F  0.55374137  0.67468780  0.69874498    -0.15600
F3653       F  0.50925504  0.71370620  0.62553950    -0.15600
F3654       F  0.53215516  0.68982225  0.60100480    -0.13300
C3655       C  0.95356062  0.52034783  0.65785694     0.24700
C3656       C  0.93588036  0.51424155  0.63462471    -0.23400
C3657       C  0.94039733  0.53266135  0.61306943     0.19600
C3658       C  0.96377876  0.55526238  0.61204882     0.24700
C3659       C  0.98278698  0.56010284  0.63301956    -0.23300
C3660       C  0.97701527  0.54334639  0.65708614     0.19600
F3661       F  0.49512533  0.54767345  0.67766404    -0.13300
F3662       F  0.94804623  0.00322613  0.68211512    -0.15600
F3663       F  0.96879228  0.57131356  0.58885968    -0.15600
F3664       F  0.92324298  0.52747377  0.59094099    -0.13300
C3665       C  0.56832656  0.54320668  0.65530345     0.24700
C3666       C  0.58065963  0.56069393  0.63210592    -0.23400
C3667       C  0.59647047  0.55707561  0.61229313     0.19600
C3668       C  0.59708924  0.53465498  0.61298104     0.24700
C3669       C  0.58152566  0.51534244  0.63315247    -0.23300
C3670       C  0.56875551  0.52052119  0.65583754     0.19600
F3671       F  0.55365130  0.00151852  0.67914786    -0.13300
F3672       F  0.55324538  0.54650599  0.67504525    -0.15600
F3673       F  0.61089808  0.53077509  0.59197346    -0.15600
F3674       F  0.60945519  0.57422177  0.59048076    -0.13300
C3675       C  0.61743742  0.63793325  0.49084060     0.24700
C3676       C  0.61964199  0.63319524  0.52088503    -0.23400
C3677       C  0.63428350  0.62218442  0.52865956     0.19600
C3678       C  0.64400902  0.61322346  0.50648355     0.24700
C3679       C  0.63930376  0.61544044  0.47639923    -0.23300
C3680       C  0.62735039  0.62918712  0.46868915     0.19600
F3681       F  0.62291029  0.63172232  0.43967288    -0.13300
F3682       F  0.60322267  0.64840775  0.48289885    -0.15600
F3683       F  0.65530575  0.59979396  0.51440034    -0.15600
F3684       F  0.63691282  0.61784755  0.55767775    -0.13300
C3685       C  0.00127208  0.67781997  0.32337627     0.24700
C3686       C  0.98669105  0.68910489  0.31629084    -0.23400
C3687       C  0.96026523  0.67583274  0.32227419     0.19600
C3688       C  0.94867796  0.65174441  0.33545166     0.24700
C3689       C  0.96326589  0.64041201  0.34210319    -0.23300
C3690       C  0.98960440  0.65358658  0.33583655     0.19600
F3691       F  0.00415915  0.64315062  0.34235322    -0.13300
F3692       F  0.02682522  0.69010984  0.31775177    -0.15600
F3693       F  0.92313547  0.63922485  0.34104017    -0.15600
F3694       F  0.44599873  0.68661919  0.31633561    -0.13300
C3695       C  0.85738765  0.53666197  0.30969945     0.24700
C3696       C  0.86041019  0.54085469  0.34073869    -0.23400
C3697       C  0.83845419  0.53346450  0.35838242     0.19600
C3698       C  0.81416783  0.52137126  0.34552896     0.24700
C3699       C  0.81119283  0.51645981  0.31477708    -0.23300
C3700       C  0.83304576  0.52466946  0.29689031     0.19600
F3701       F  0.83082855  0.52013356  0.26711932    -0.13300
F3702       F  0.87791574  0.54386894  0.29157443    -0.15600
F3703       F  0.79137959  0.01154141  0.36386049    -0.15600
F3704       F  0.83802324  0.03482393  0.38920290    -0.13300
C3705       C  0.90625759  0.96129304  0.37913399     0.24700
C3706       C  0.92076140  0.98022046  0.35816745    -0.23400
C3707       C  0.93286787  0.97487221  0.33485576     0.19600
C3708       C  0.93313951  0.95202269  0.33490661     0.24700
C3709       C  0.92136801  0.93460948  0.35832513    -0.23300
C3710       C  0.90654232  0.93866907  0.37918329     0.19600
F3711       F  0.89441740  0.92177718  0.40145730    -0.13300
F3712       F  0.89397862  0.96584130  0.40147195    -0.15600
F3713       F  0.94743452  0.94838463  0.31433617    -0.15600
F3714       F  0.94991409  0.49440023  0.31618987    -0.13300
C3715       C  0.99298801  0.61992557  0.52603529     0.24700
C3716       C  0.51931563  0.63241568  0.51953709    -0.23400
C3717       C  0.52752255  0.63877411  0.48989372     0.19600
C3718       C  0.50952584  0.62980916  0.46675952     0.24700
C3719       C  0.98316655  0.61465720  0.47327694    -0.23300
C3720       C  0.97502279  0.61103547  0.50302728     0.19600
F3721       F  0.94978095  0.59645168  0.50974754    -0.13300
F3722       F  0.98473770  0.61422191  0.55461765    -0.15600
F3723       F  0.51779890  0.63371901  0.43809610    -0.15600
F3724       F  0.55285965  0.65092262  0.48315813    -0.13300
C3725       C  0.85978228  0.96962128  0.49204782     0.24700
C3726       C  0.86526973  0.97844340  0.52149544    -0.23400
C3727       C  0.87703621  0.00465294  0.52696974     0.19600
C3728       C  0.88635543  0.52415652  0.50241975     0.24700
C3729       C  0.88384935  0.51569706  0.47284460    -0.23300
C3730       C  0.86930483  0.48949537  0.46699558     0.19600
F3731       F  0.86630896  0.48085816  0.43859200    -0.13300
F3732       F  0.84855747  0.94442339  0.48618142    -0.15600
F3733       F  0.90034287  0.54932206  0.50872903    -0.15600
F3734       F  0.88221593  0.01356431  0.55529386    -0.13300
C3735       C  0.53899279  0.59249733  0.38339746     0.24700
C3736       C  0.51995354  0.57725582  0.36277113    -0.23400
C3737       C  0.52543908  0.56451239  0.34047047     0.19600
C3738       C  0.54846921  0.56440837  0.34131054     0.24700
C3739       C  0.56596378  0.57695660  0.36450163    -0.23300
C3740       C  0.56178775  0.59224716  0.38435195     0.19600
F3741       F  0.57879708  0.60515626  0.40635656    -0.13300
F3742       F  0.53447268  0.60570884  0.40447382    -0.15600
F3743       F  0.55212625  0.54947053  0.32188558    -0.15600
F3744       F  0.00733311  0.54970030  0.32051188    -0.13300
loop_ 
_geom_bond_atom_site_label_1 
_geom_bond_atom_site_label_2 
_geom_bond_distance 
_geom_bond_site_symmetry_2 
_ccdc_geom_bond_type 
Fe1          O17   2.043       .  S
Fe1           O7   2.061       .  S
Fe1          O14   2.055       .  S
Fe1           O6   2.043       .  S
Fe1          O12   1.946       .  S
Fe2           O5   2.053       .  S
Fe2           O9   2.080       .  S
Fe2          O13   2.072       .  S
Fe2          O18   2.068       .  S
Fe2          O12   1.975       .  S
Fe3          O21   2.085       .  S
Fe3           O8   2.060       .  S
Fe3          O15   2.077       .  S
Fe3           O4   2.101       .  S
Fe3          O12   1.977       .  S
O4           C11   1.274       .  A
O5           C19   1.268       .  A
O6           C11   1.265       .  A
O7           C10   1.268       .  A
O8           C20   1.271       .  A
O9           C22   1.270       .  A
C10          O15   1.269       .  A
C10         C911   1.470       .  S
C11         C921   1.476       .  S
O13          C16   1.268       .  A
O14          C16   1.268       .  A
C16        C1834   1.470   1_545  S
O17          C22   1.266       .  A
O18          C20   1.271       .  A
C19          O21   1.272       .  A
C19         C881   1.474       .  S
C20         C888   1.488       .  S
C22        C2800   1.473       .  S
Fe23         O39   2.070       .  S
Fe23         O29   2.046       .  S
Fe23         O36   2.066       .  S
Fe23         O28   2.051       .  S
Fe23         O34   1.994       .  S
Fe24         O27   2.051       .  S
Fe24         O31   2.047       .  S
Fe24         O35   2.045       .  S
Fe24         O40   2.053       .  S
Fe24         O34   1.959       .  S
Fe25         O43   2.081       .  S
Fe25         O30   2.086       .  S
Fe25         O37   2.070       .  S
Fe25         O26   2.071       .  S
Fe25         O34   1.989       .  S
O26          C33   1.270       .  A
O27          C41   1.265       .  A
O28          C33   1.267       .  A
O29          C32   1.266       .  A
O30          C42   1.271       .  A
O31          C44   1.266       .  A
C32          O37   1.271       .  A
C32         C828   1.471       .  S
C33         C838   1.480       .  S
O35          C38   1.266       .  A
O36          C38   1.266       .  A
C38        C2723   1.467   1_455  S
O39          C44   1.267       .  A
O40          C42   1.267       .  A
C41          O43   1.268       .  A
C41         C868   1.472       .  S
C42         C908   1.473       .  S
C44         C858   1.469       .  S
Fe45         O61   2.038       .  S
Fe45         O51   2.058       .  S
Fe45         O58   2.053       .  S
Fe45         O50   2.043       .  S
Fe45         O56   1.946       .  S
Fe46         O49   2.041       .  S
Fe46         O53   2.082       .  S
Fe46         O57   2.065       .  S
Fe46         O62   2.066       .  S
Fe46         O56   1.976       .  S
Fe47         O65   2.082       .  S
Fe47         O52   2.061       .  S
Fe47         O59   2.080       .  S
Fe47         O48   2.101       .  S
Fe47         O56   1.974       .  S
O48          C55   1.275       .  A
O49          C63   1.267       .  A
O50          C55   1.266       .  A
O51          C54   1.266       .  A
O52          C64   1.270       .  A
O53          C66   1.270       .  A
C54          O59   1.268       .  A
C54         C808   1.472       .  S
C55         C818   1.474       .  S
O57          C60   1.266       .  A
O58          C60   1.267       .  A
C60        C2670   1.468   1_455  S
O61          C66   1.266       .  A
O62          C64   1.270       .  A
C63          O65   1.273       .  A
C63         C788   1.473       .  S
C64         C781   1.482       .  S
C66        C1797   1.472       .  S
Fe67         O83   2.084       .  S
Fe67         O73   2.045       .  S
Fe67         O80   2.064       .  S
Fe67         O72   2.067       .  S
Fe67         O78   1.974       .  S
Fe68         O71   2.061       .  S
Fe68         O75   2.044       .  S
Fe68         O79   2.051       .  S
Fe68         O84   2.042       .  S
Fe68         O78   1.947       .  S
Fe69         O87   2.074       .  S
Fe69         O74   2.113       .  S
Fe69         O81   2.092       .  S
Fe69         O70   2.067       .  S
Fe69         O78   1.972       .  S
O70          C77   1.272       .  A
O71          C85   1.267       .  A
O72          C77   1.271       .  A
O73          C76   1.266       .  A
O74          C86   1.277       .  A
O75          C88   1.268       .  A
C76          O81   1.274       .  A
C76         C751   1.486       .  S
C77         C758   1.481       .  S
O79          C82   1.265       .  A
O80          C82   1.265       .  A
C82        C1707   1.465   1_545  S
O83          C88   1.272       .  A
O84          C86   1.265       .  A
C85          O87   1.268       .  A
C85         C871   1.469       .  S
C86         C811   1.480       .  S
C88         C931   1.473       .  S
Fe89        O105   2.069       .  S
Fe89         O95   2.069       .  S
Fe89        O102   2.083       .  S
Fe89         O94   2.047       .  S
Fe89        O100   1.974       .  S
Fe90         O93   2.046       .  S
Fe90         O97   2.051       .  S
Fe90        O101   2.046       .  S
Fe90        O106   2.056       .  S
Fe90        O100   1.946       .  S
Fe91        O109   2.099       .  S
Fe91         O96   2.077       .  S
Fe91        O103   2.060       .  S
Fe91         O92   2.080       .  S
Fe91        O100   1.975       .  S
O92          C99   1.273       .  A
O93         C107   1.266       .  A
O94          C99   1.268       .  A
O95          C98   1.271       .  A
O96         C108   1.268       .  A
O97         C110   1.266       .  A
C98         O103   1.269       .  A
C98         C728   1.486       .  S
C99         C718   1.472       .  S
O101        C104   1.267       .  A
O102        C104   1.270       .  A
C104        C901   1.476       .  S
O105        C110   1.267       .  A
O106        C108   1.265       .  A
C107        O109   1.274       .  A
C107        C821   1.474       .  S
C108        C738   1.470       .  S
C110       C2640   1.467       .  S
Fe111       O127   2.078       .  S
Fe111       O117   2.053       .  S
Fe111       O124   2.076       .  S
Fe111       O116   2.054       .  S
Fe111       O122   1.994       .  S
Fe112       O115   2.048       .  S
Fe112       O119   2.036       .  S
Fe112       O123   2.040       .  S
Fe112       O128   2.047       .  S
Fe112       O122   1.959       .  S
Fe113       O131   2.094       .  S
Fe113       O118   2.083       .  S
Fe113       O125   2.071       .  S
Fe113       O114   2.075       .  S
Fe113       O122   1.990       .  S
O114        C121   1.271       .  A
O115        C129   1.264       .  A
O116        C121   1.268       .  A
O117        C120   1.268       .  A
O118        C130   1.269       .  A
O119        C132   1.264       .  A
C120        O125   1.271       .  A
C120        C708   1.481       .  S
C121        C698   1.476       .  S
O123        C126   1.265       .  A
O124        C126   1.268       .  A
C126        C801   1.473       .  S
O127        C132   1.268       .  A
O128        C130   1.264       .  A
C129        O131   1.272       .  A
C129        C918   1.476       .  S
C130        C741   1.470       .  S
C132       C1784   1.471       .  S
Fe133       O149   2.071       .  S
Fe133       O139   2.059       .  S
Fe133       O146   2.080       .  S
Fe133       O138   2.050       .  S
Fe133       O144   1.983       .  S
Fe134       O137   2.047       .  S
Fe134       O141   2.044       .  S
Fe134       O145   2.050       .  S
Fe134       O150   2.047       .  S
Fe134       O144   1.954       .  S
Fe135       O147   2.063   1_565  S
Fe135       O136   2.077   1_565  S
Fe135      O1089   2.097       .  S
Fe135      O1076   2.079       .  S
Fe135      O1080   1.978       .  S
O136        C143   1.272   1_545  A
O137        C151   1.266       .  A
O138       C1079   1.268       .  A
O139       C1078   1.269       .  A
O140      Fe1071   2.077       .  S
O140        C152   1.267       .  A
O141        C154   1.265       .  A
C142        O147   1.270   1_565  A
C142       O1075   1.269       .  A
C142        C891   1.475   1_565  S
C143       O1074   1.268       .  A
C143        C761   1.480   1_565  S
O144      Fe1071   1.984       .  S
O145        C148   1.267       .  A
O146        C148   1.270       .  A
C148        C681   1.475       .  S
O149        C154   1.267       .  A
O150        C152   1.264       .  A
C151        O153   1.272       .  A
C151        C671   1.473       .  S
C152        C688   1.467       .  S
O153      Fe1071   2.092       .  S
C154        C658   1.468       .  S
Fe155       O171   2.044       .  S
Fe155       O161   2.054       .  S
Fe155       O168   2.047       .  S
Fe155       O160   2.047       .  S
Fe155       O166   1.957       .  S
Fe156       O159   2.053       .  S
Fe156       O163   2.074       .  S
Fe156       O167   2.072       .  S
Fe156       O172   2.056       .  S
Fe156       O166   1.989       .  S
Fe157       O175   2.078       .  S
Fe157       O162   2.063       .  S
Fe157       O169   2.072       .  S
Fe157       O158   2.097       .  S
Fe157       O166   1.985       .  S
O158        C165   1.273       .  A
O159        C173   1.267       .  A
O160        C165   1.265       .  A
O161        C164   1.266       .  A
O162        C174   1.270       .  A
O163        C176   1.269       .  A
C164        O169   1.267       .  A
C164        C691   1.467       .  S
C165        C638   1.477       .  S
O167        C170   1.266       .  A
O168        C170   1.265       .  A
C170        C628   1.470       .  S
O171        C176   1.267       .  A
O172        C174   1.269       .  A
C173        O175   1.271       .  A
C173        C621   1.477       .  S
C174        C608   1.474       .  S
C176        C648   1.469       .  S
Fe177       O193   2.071       .  S
Fe177       O183   2.076       .  S
Fe177       O190   2.087       .  S
Fe177       O182   2.050       .  S
Fe177       O188   1.968       .  S
Fe178       O181   2.042       .  S
Fe178       O185   2.049       .  S
Fe178       O189   2.040       .  S
Fe178       O194   2.066       .  S
Fe178       O188   1.942       .  S
Fe179       O184   2.080       .  S
Fe179       O191   2.060       .  S
Fe179       O180   2.087       .  S
Fe179      O2069   2.109       .  S
Fe179      O2060   1.966       .  S
O180        C187   1.273       .  A
O181        C195   1.265       .  A
O182       C2059   1.267   1_455  A
O183       C2058   1.274   1_455  A
O184       C2068   1.269       .  A
O185        C198   1.265       .  A
C186        O191   1.271       .  A
C186       O2055   1.274       .  A
C186        C731   1.484       .  S
C187       O2054   1.267       .  A
C187        C878   1.477       .  S
O188      Fe2051   1.966       .  S
O189        C192   1.268       .  A
O190        C192   1.273       .  A
C192        C588   1.477       .  S
O193        C198   1.267       .  A
O194        C196   1.267       .  A
C195        O197   1.276       .  A
C195        C641   1.476       .  S
C196       O2056   1.269       .  A
C196        C601   1.474       .  S
O197      Fe2051   2.109       .  S
C198        C678   1.466       .  S
Fe199       O215   2.066       .  S
Fe199       O205   2.058       .  S
Fe199       O212   2.079       .  S
Fe199       O204   2.044       .  S
Fe199       O210   1.991       .  S
Fe200       O203   2.050       .  S
Fe200       O207   2.039       .  S
Fe200       O211   2.046       .  S
Fe200       O216   2.050       .  S
Fe200       O210   1.956       .  S
Fe201       O219   2.080       .  S
Fe201       O206   2.089       .  S
Fe201       O213   2.074       .  S
Fe201       O202   2.068       .  S
Fe201       O210   1.988       .  S
O202        C209   1.271       .  A
O203        C217   1.267       .  A
O204        C209   1.267       .  A
O205        C208   1.267       .  A
O206        C218   1.270       .  A
O207        C220   1.265       .  A
C208        O213   1.272       .  A
C208        C561   1.481       .  S
C209        C548   1.470       .  S
O211        C214   1.267       .  A
O212        C214   1.269       .  A
C214        C631   1.474       .  S
O215        C220   1.266       .  A
O216        C218   1.264       .  A
C217        O219   1.270       .  A
C217        C581   1.469       .  S
C218        C598   1.476       .  S
C220        C568   1.466       .  S
Fe221       O237   2.078       .  S
Fe221       O227   2.047       .  S
Fe221       O234   2.065       .  S
Fe221       O226   2.060       .  S
Fe221       O232   1.984       .  S
Fe222       O225   2.053       .  S
Fe222       O229   2.043       .  S
Fe222       O233   2.047       .  S
Fe222       O238   2.047       .  S
Fe222       O232   1.954       .  S
Fe223       O241   2.079       .  S
Fe223       O228   2.097       .  S
Fe223       O235   2.079       .  S
Fe223       O224   2.067       .  S
Fe223       O232   1.980       .  S
O224        C231   1.271       .  A
O225        C239   1.265       .  A
O226        C231   1.269       .  A
O227        C230   1.267       .  A
O228        C240   1.273       .  A
O229        C242   1.266       .  A
C230        O235   1.272       .  A
C230        C518   1.477       .  S
C231        C528   1.479       .  S
O233        C236   1.266       .  A
O234        C236   1.265       .  A
C236        C571   1.467       .  S
O237        C242   1.270       .  A
O238        C240   1.266       .  A
C239        O241   1.268       .  A
C239        C668   1.470       .  S
C240        C538   1.476       .  S
C242        C651   1.471       .  S
Fe243       O259   2.041       .  S
Fe243       O249   2.058       .  S
Fe243       O256   2.050       .  S
Fe243       O248   2.039       .  S
Fe243       O254   1.941       .  S
Fe244       O247   2.046       .  S
Fe244       O251   2.088       .  S
Fe244       O255   2.068       .  S
Fe244       O260   2.082       .  S
Fe244       O254   1.970       .  S
Fe245       O263   2.080       .  S
Fe245       O250   2.060       .  S
Fe245       O257   2.080       .  S
Fe245       O246   2.099       .  S
Fe245       O254   1.969       .  S
O246        C253   1.274       .  A
O247        C261   1.267       .  A
O248        C253   1.265       .  A
O249        C252   1.266       .  A
O250        C262   1.270       .  A
O251        C264   1.272       .  A
C252        O257   1.269       .  A
C252        C541   1.471       .  S
C253        C578   1.470       .  S
O255        C258   1.268       .  A
O256        C258   1.267       .  A
C258        C591   1.466       .  S
O259        C264   1.267       .  A
O260        C262   1.273       .  A
C261        O263   1.272       .  A
C261        C721   1.466       .  S
C262        C748   1.484       .  S
C264        C661   1.478       .  S
Fe265       O281   2.042       .  S
Fe265       O271   2.043       .  S
Fe265       O278   2.038       .  S
Fe265       O270   2.042       .  S
Fe265       O276   1.959       .  S
Fe266       O269   2.052       .  S
Fe266       O273   2.084       .  S
Fe266       O277   2.071       .  S
Fe266       O282   2.068       .  S
Fe266       O276   1.991       .  S
Fe267       O285   2.059       .  S
Fe267       O272   2.067       .  S
Fe267       O279   2.092       .  S
Fe267       O268   2.080       .  S
Fe267       O276   1.989       .  S
O268        C275   1.270       .  A
O269        C283   1.268       .  A
O270        C275   1.265       .  A
O271        C274   1.262       .  A
O272        C284   1.270       .  A
O273        C286   1.271       .  A
C274        O279   1.269       .  A
C274        C508   1.475       .  S
C275        C488   1.465       .  S
O277        C280   1.267       .  A
O278        C280   1.263       .  A
C280        C478   1.467       .  S
O281        C286   1.266       .  A
O282        C284   1.270       .  A
C283        O285   1.270       .  A
C283        C551   1.471       .  S
C284        C521   1.485       .  S
C286        C498   1.475       .  S
Fe287       O303   2.079       .  S
Fe287       O293   2.051       .  S
Fe287       O300   2.074       .  S
Fe287       O292   2.059       .  S
Fe287       O298   1.993       .  S
Fe288       O291   2.049       .  S
Fe288       O295   2.042       .  S
Fe288       O299   2.044       .  S
Fe288       O304   2.046       .  S
Fe288       O298   1.961       .  S
Fe289       O294   2.096   1_455  S
Fe289       O301   2.074       .  S
Fe289       O290   2.067       .  S
Fe289      O2179   2.085   1_455  S
Fe289      O2170   1.988   1_455  S
O290        C297   1.271       .  A
O291        C305   1.265       .  A
O292       C2169   1.269       .  A
O293       C2168   1.267       .  A
O294       C2178   1.272       .  A
O295        C308   1.266       .  A
C296        O301   1.272       .  A
C296       O2165   1.267   1_455  A
C296        C778   1.479       .  S
C297       O2164   1.269   1_455  A
C297        C841   1.480       .  S
O298      Fe2161   1.988       .  S
O299        C302   1.265       .  A
O300        C302   1.268       .  A
C302        C451   1.472       .  S
O303        C308   1.269       .  A
O304        C306   1.265       .  A
C305        O307   1.269       .  A
C305        C468   1.472       .  S
C306       O2166   1.272       .  A
C306        C511   1.475       .  S
O307      Fe2161   2.085       .  S
C308        C458   1.476       .  S
Fe309       O325   2.080       .  S
Fe309       O315   2.050       .  S
Fe309       O322   2.068       .  S
Fe309       O314   2.057       .  S
Fe309       O320   1.988       .  S
Fe310       O313   2.047       .  S
Fe310       O317   2.047       .  S
Fe310       O321   2.041       .  S
Fe310       O326   2.045       .  S
Fe310       O320   1.958       .  S
Fe311       O329   2.087       .  S
Fe311       O316   2.087       .  S
Fe311       O323   2.067       .  S
Fe311       O312   2.069       .  S
Fe311       O320   1.986       .  S
O312        C319   1.270       .  A
O313        C327   1.264       .  A
O314        C319   1.268       .  A
O315        C318   1.268       .  A
O316        C328   1.270       .  A
O317        C330   1.266       .  A
C318        O323   1.271       .  A
C318        C611   1.477       .  S
C319        C531   1.485       .  S
O321        C324   1.265       .  A
O322        C324   1.266       .  A
C324        C431   1.469       .  S
O325        C330   1.269       .  A
O326        C328   1.265       .  A
C327        O329   1.270       .  A
C327        C471   1.472       .  S
C328        C441   1.470       .  S
C330        C501   1.476       .  S
Fe331       O347   2.073       .  S
Fe331       O337   2.053       .  S
Fe331       O344   2.070       .  S
Fe331       O336   2.058       .  S
Fe331       O342   1.991       .  S
Fe332       O335   2.040       .  S
Fe332       O339   2.039       .  S
Fe332       O343   2.040       .  S
Fe332       O348   2.040       .  S
Fe332       O342   1.961       .  S
Fe333       O351   2.090       .  S
Fe333       O338   2.094       .  S
Fe333       O345   2.078       .  S
Fe333       O334   2.073       .  S
Fe333       O342   1.988       .  S
O334        C341   1.272       .  A
O335        C349   1.263       .  A
O336        C341   1.269       .  A
O337        C340   1.266       .  A
O338        C350   1.271       .  A
O339        C352   1.266       .  A
C340        O345   1.273       .  A
C340        C558   1.486       .  S
C341        C618   1.481       .  S
O343        C346   1.264       .  A
O344        C346   1.267       .  A
C346        C481   1.469       .  S
O347        C352   1.268       .  A
O348        C350   1.263       .  A
C349        O351   1.271       .  A
C349        C408   1.470       .  S
C350        C418   1.472       .  S
C352        C428   1.472       .  S
Fe353       O369   2.066       .  S
Fe353       O359   2.072       .  S
Fe353       O366   2.081       .  S
Fe353       O358   2.047       .  S
Fe353       O364   1.965       .  S
Fe354       O357   2.040       .  S
Fe354       O361   2.060       .  S
Fe354       O365   2.043       .  S
Fe354       O370   2.067       .  S
Fe354       O364   1.938       .  S
Fe355       O373   2.094       .  S
Fe355       O360   2.074       .  S
Fe355       O367   2.053       .  S
Fe355       O356   2.078       .  S
Fe355      O1300   1.969       .  S
O356        C363   1.271       .  A
O357        C371   1.265       .  A
O358       C1299   1.267   1_545  A
O359       C1298   1.272   1_545  A
O360       C1308   1.268       .  A
O361        C374   1.269       .  A
C362        O367   1.269       .  A
C362       O1295   1.272       .  A
C362        C711   1.483       .  S
C363       O1294   1.266       .  A
C363        C791   1.463       .  S
O364      Fe1291   1.966       .  S
O365        C368   1.267       .  A
O366        C368   1.270       .  A
C368        C398   1.470       .  S
O369        C374   1.268       .  A
O370        C372   1.268       .  A
C371       O1309   1.272       .  A
C371        C491   1.467       .  S
C372       O1296   1.269       .  A
C372        C421   1.472       .  S
O373       C1307   1.273       .  A
C374        C448   1.468       .  S
Fe375       O391   2.050       .  S
Fe375       O381   2.041       .  S
Fe375       O388   2.040       .  S
Fe375       O380   2.053       .  S
Fe375       O386   1.955       .  S
Fe376       O379   2.062       .  S
Fe376       O383   2.071       .  S
Fe376       O387   2.076       .  S
Fe376       O392   2.055       .  S
Fe376       O386   1.987       .  S
Fe377       O395   2.062       .  S
Fe377       O382   2.068       .  S
Fe377       O389   2.092       .  S
Fe377       O378   2.079       .  S
Fe377       O386   1.982       .  S
O378        C385   1.267       .  A
O379        C393   1.268       .  A
O380        C385   1.265       .  A
O381        C384   1.265       .  A
O382        C394   1.272       .  A
O383        C396   1.268       .  A
C384        O389   1.272       .  A
C384        C438   1.470       .  S
C385        C411   1.471       .  S
O387        C390   1.268       .  A
O388        C390   1.265       .  A
C390        C401   1.468       .  S
O391        C396   1.267       .  A
O392        C394   1.269       .  A
C393        O395   1.269       .  A
C393        C701   1.486       .  S
C394        C831   1.478       .  S
C396        C461   1.471       .  S
C397        C398   1.407       .  A
C397        C402   1.400       .  A
C397        F404   1.358       .  S
C398        C399   1.404       .  A
C399        C400   1.392       .  A
C399        F406   1.357       .  S
C400        C401   1.403       .  A
C400        F405   1.357       .  S
C401        C402   1.406       .  A
C402        F403   1.358       .  S
C407        C408   1.403       .  A
C407        C412   1.400       .  A
C407        F414   1.358       .  S
C408        C409   1.406       .  A
C409        C410   1.401       .  A
C409        F416   1.358       .  S
C410        C411   1.403       .  A
C410        F415   1.358       .  S
C411        C412   1.405       .  A
C412        F413   1.357       .  S
C417        C418   1.404       .  A
C417        C422   1.403       .  A
C417        F424   1.358       .  S
C418        C419   1.406       .  A
C419        C420   1.400       .  A
C419        F426   1.358       .  S
C420        C421   1.402       .  A
C420        F425   1.358       .  S
C421        C422   1.406       .  A
C422        F423   1.357       .  S
C427        C428   1.405       .  A
C427        C432   1.389       .  A
C427        F434   1.358       .  S
C428        C429   1.408       .  A
C429        C430   1.402       .  A
C429        F436   1.357   1_556  S
C430        C431   1.405       .  A
C430        F435   1.357   1_556  S
C431        C432   1.404       .  A
C432        F433   1.358       .  S
C437        C438   1.406       .  A
C437        C442   1.399       .  A
C437        F444   1.357       .  S
C438        C439   1.403       .  A
C439        C440   1.401       .  A
C439        F446   1.358       .  S
C440        C441   1.406       .  A
C440        F445   1.357       .  S
C441        C442   1.402       .  A
C442        F443   1.358       .  S
C447        C448   1.406       .  A
C447        C452   1.403       .  A
C447        F454   1.358       .  S
C448        C449   1.402       .  A
C449        C450   1.392       .  A
C449        F456   1.358       .  S
C450        C451   1.405       .  A
C450        F455   1.358       .  S
C451        C452   1.407       .  A
C452        F453   1.358       .  S
C457        C458   1.408       .  A
C457        C462   1.404       .  A
C457        F464   1.358       .  S
C458        C459   1.406       .  A
C459        C460   1.391       .  A
C459        F466   1.358       .  S
C460        C461   1.403       .  A
C460        F465   1.358       .  S
C461        C462   1.406       .  A
C462        F463   1.358       .  S
C467        C468   1.403       .  A
C467        C472   1.401       .  A
C467        F474   1.358       .  S
C468        C469   1.406       .  A
C469        C470   1.402       .  A
C469        F476   1.357       .  S
C470        C471   1.404       .  A
C470        F475   1.358       .  S
C471        C472   1.406       .  A
C472        F473   1.357       .  S
C477        C478   1.404       .  A
C477        C482   1.391       .  A
C477        F484   1.357       .  S
C478        C479   1.405       .  A
C479        C480   1.402       .  A
C479        F486   1.358   1_556  S
C480        C481   1.406       .  A
C480        F485   1.358   1_556  S
C481        C482   1.404       .  A
C482        F483   1.358       .  S
C487        C488   1.406       .  A
C487        C492   1.399       .  A
C487        F494   1.357       .  S
C488        C489   1.401       .  A
C489        C490   1.398       .  A
C489        F496   1.358       .  S
C490        C491   1.406       .  A
C490        F495   1.357       .  S
C491        C492   1.403       .  A
C492       F1429   1.358       .  S
F493       C1428   1.358       .  S
C497        C498   1.405       .  A
C497        C502   1.393       .  A
C497        F504   1.358       .  S
C498        C499   1.407       .  A
C499        C500   1.403       .  A
C499        F506   1.358   1_556  S
C500        C501   1.407       .  A
C500        F505   1.358   1_556  S
C501        C502   1.405       .  A
C502        F503   1.357       .  S
C507        C508   1.406       .  A
C507        C512   1.402       .  A
C507        F514   1.357       .  S
C508        C509   1.404       .  A
C509        C510   1.403       .  A
C509        F516   1.358       .  S
C510        C511   1.407       .  A
C510        F515   1.357       .  S
C511        C512   1.403       .  A
C512        F513   1.358       .  S
C517        C518   1.407   1_556  A
C517       C1458   1.397       .  A
C517        F524   1.358       .  S
C518        C519   1.406       .  A
C519       C1456   1.400       .  A
C519        F526   1.358       .  S
C520        C521   1.409   1_554  A
C520       C1455   1.401   1_545  A
C520        F525   1.358       .  S
C521        C522   1.407   1_545  A
C522       C1453   1.399       .  A
C522        F523   1.358   1_565  S
C527        C528   1.408   1_556  A
C527        C532   1.398       .  A
C527        F534   1.358       .  S
C528        C529   1.406       .  A
C529        C530   1.398       .  A
C529        F536   1.358       .  S
C530        C531   1.411   1_554  A
C530        F535   1.358       .  S
C531        C532   1.408       .  A
C532        F533   1.358       .  S
C537        C538   1.406       .  A
C537        C542   1.399       .  A
C537        F544   1.356       .  S
C538        C539   1.405       .  A
C539        C540   1.404       .  A
C539        F546   1.357       .  S
C540        C541   1.406       .  A
C540        F545   1.357       .  S
C541        C542   1.402       .  A
C542        F543   1.357       .  S
C547        C548   1.406   1_556  A
C547       C2424   1.393   1_455  A
C547        F554   1.358       .  S
C548        C549   1.405       .  A
C549       C2422   1.396   1_455  A
C549        F556   1.358       .  S
C550        C551   1.408   1_554  A
C550       C2421   1.396       .  A
C550        F555   1.358       .  S
C551        C552   1.405       .  A
C552       C2419   1.393       .  A
C552        F553   1.358       .  S
C557        C558   1.407       .  A
C557        C562   1.399       .  A
C557        F564   1.358       .  S
C558        C559   1.413   1_556  A
C559        C560   1.400       .  A
C559        F566   1.358       .  S
C560        C561   1.405       .  A
C560        F565   1.358       .  S
C561        C562   1.408   1_554  A
C562        F563   1.358       .  S
C567        C568   1.406       .  A
C567        C572   1.404       .  A
C567        F574   1.358   1_554  S
C568        C569   1.402       .  A
C569        C570   1.387       .  A
C569        F576   1.357       .  S
C570        C571   1.402       .  A
C570        F575   1.356       .  S
C571        C572   1.406       .  A
C572        F573   1.358   1_554  S
C577        C578   1.406       .  A
C577        C582   1.398       .  A
C577        F584   1.357       .  S
C578        C579   1.404       .  A
C579        C580   1.400       .  A
C579        F586   1.357       .  S
C580        C581   1.405       .  A
C580        F585   1.357       .  S
C581        C582   1.402       .  A
C582        F583   1.358       .  S
C587        C588   1.406       .  A
C587        C592   1.390       .  A
C587        F594   1.358       .  S
C588        C589   1.409       .  A
C589        C590   1.403       .  A
C589        F596   1.358       .  S
C590        C591   1.404       .  A
C590        F595   1.358       .  S
C591        C592   1.402       .  A
C592        F593   1.357       .  S
C597        C598   1.404       .  A
C597        C602   1.399       .  A
C597        F604   1.356       .  S
C598        C599   1.406       .  A
C599        C600   1.405       .  A
C599        F606   1.357       .  S
C600        C601   1.406       .  A
C600        F605   1.357       .  S
C601        C602   1.402       .  A
C602       F2475   1.356       .  S
F603       C2474   1.356       .  S
C607        C608   1.405       .  A
C607       C2484   1.396   1_455  A
C607        F614   1.358       .  S
C608        C609   1.407   1_554  A
C609        C610   1.395   1_455  A
C609        F616   1.358       .  S
C610       C2483   1.407       .  A
C610        F615   1.358       .  S
C611        C612   1.409   1_556  A
C611       C2482   1.407       .  A
C612       C2479   1.396       .  A
C612        F613   1.358       .  S
C617        C618   1.409   1_554  A
C617       C1558   1.398   1_545  A
C617        F624   1.358       .  S
C618        C619   1.407   1_545  A
C619       C1556   1.399       .  A
C619        F626   1.358   1_565  S
C620        C621   1.406   1_556  A
C620       C1555   1.398       .  A
C620        F625   1.358       .  S
C621        C622   1.404       .  A
C622       C1553   1.400       .  A
C622        F623   1.358       .  S
C627        C628   1.406       .  A
C627        C632   1.405       .  A
C627        F634   1.358   1_554  S
C628        C629   1.401       .  A
C629        C630   1.391       .  A
C629        F636   1.356       .  S
C630        C631   1.403       .  A
C630        F635   1.356       .  S
C631        C632   1.408       .  A
C632        F633   1.358   1_554  S
C637        C638   1.404       .  A
C637        C642   1.403       .  A
C637        F644   1.358       .  S
C638        C639   1.406       .  A
C639        C640   1.400       .  A
C639        F646   1.356       .  S
C640        C641   1.403       .  A
C640       F2517   1.356       .  S
C641        C642   1.408       .  A
C642        F643   1.357       .  S
F645       C2512   1.356       .  S
C647        C648   1.406       .  A
C647        C652   1.400       .  A
C647        F654   1.358   1_554  S
C648        C649   1.404       .  A
C649        C650   1.392       .  A
C649        F656   1.357       .  S
C650        C651   1.405       .  A
C650        F655   1.357       .  S
C651        C652   1.406       .  A
C652        F653   1.358   1_554  S
C657        C658   1.404       .  A
C657        C662   1.403       .  A
C657        F664   1.358       .  S
C658        C659   1.402       .  A
C659        C660   1.391       .  A
C659        F666   1.355       .  S
C660        C661   1.406       .  A
C660        F665   1.358       .  S
C661        C662   1.410       .  A
C662        F663   1.358       .  S
C667        C668   1.406       .  A
C667        C672   1.402       .  A
C667        F674   1.357       .  S
C668        C669   1.402       .  A
C669        C670   1.399       .  A
C669        F676   1.358       .  S
C670        C671   1.405       .  A
C670        F675   1.356       .  S
C671        C672   1.404       .  A
C672        F673   1.358       .  S
C677        C678   1.404       .  A
C677        C682   1.402       .  A
C677        F684   1.358       .  S
C678        C679   1.403       .  A
C679        C680   1.394       .  A
C679        F686   1.358       .  S
C680        C681   1.405       .  A
C680        F685   1.357       .  S
C681        C682   1.408       .  A
C682        F683   1.358       .  S
C687        C688   1.405       .  A
C687        C692   1.399       .  A
C687        F694   1.357       .  S
C688        C689   1.403       .  A
C689        C690   1.400       .  A
C689        F696   1.358       .  S
C690        C691   1.404       .  A
C690        F695   1.357       .  S
C691        C692   1.402       .  A
C692        F693   1.358       .  S
C697        C698   1.406       .  A
C697        C702   1.397       .  A
C697        F704   1.358       .  S
C698        C699   1.404       .  A
C699        C700   1.400       .  A
C699        F706   1.358       .  S
C700        C701   1.413       .  A
C700        F705   1.358       .  S
C701        C702   1.409       .  A
C702        F703   1.358       .  S
C707        C708   1.409       .  A
C707        C712   1.396       .  A
C707        F714   1.358       .  S
C708        C709   1.407       .  A
C709        C710   1.398       .  A
C709        F716   1.358       .  S
C710        C711   1.410       .  A
C710        F715   1.358       .  S
C711        C712   1.409       .  A
C712        F713   1.358       .  S
C717        C718   1.407       .  A
C717        C722   1.399       .  A
C717        F724   1.358       .  S
C718        C719   1.407       .  A
C719        C720   1.394       .  A
C719        F726   1.359       .  S
C720        C721   1.403       .  A
C720        F725   1.359       .  S
C721        C722   1.403       .  A
C722        F723   1.358       .  S
C727        C728   1.409       .  A
C727        C732   1.398       .  A
C727        F734   1.358       .  S
C728        C729   1.410       .  A
C729        C730   1.397       .  A
C729        F736   1.358       .  S
C730        C731   1.408       .  A
C730        F735   1.358       .  S
C731        C732   1.409       .  A
C732        F733   1.358       .  S
C737        C738   1.405       .  A
C737        C742   1.401       .  A
C737        F744   1.357       .  S
C738        C739   1.403       .  A
C739        C740   1.400       .  A
C739        F746   1.357       .  S
C740        C741   1.405       .  A
C740        F745   1.357       .  S
C741        C742   1.403       .  A
C742        F743   1.358       .  S
C747        C748   1.409       .  A
C747        C752   1.403       .  A
C747        F754   1.358       .  S
C748        C749   1.406       .  A
C749        C750   1.397       .  A
C749        F756   1.358       .  S
C750        C751   1.410       .  A
C750        F755   1.358       .  S
C751        C752   1.408       .  A
C752        F753   1.358       .  S
C757        C758   1.409       .  A
C757        C762   1.398       .  A
C757        F764   1.358       .  S
C758        C759   1.407       .  A
C759        C760   1.398       .  A
C759        F766   1.358       .  S
C760        C761   1.409       .  A
C760        F765   1.358       .  S
C761        C762   1.406       .  A
C762        F763   1.358       .  S
C767        C768   1.403       .  A
C767        C772   1.391       .  A
C767        F774   1.356       .  S
C768       C1982   1.467   1_455  S
C768        C769   1.405       .  A
C769        C770   1.404       .  A
C769       F2648   1.358       .  S
C770        C771   1.407       .  A
C770        F775   1.358       .  S
C771       C1018   1.470       .  S
C771        C772   1.403       .  A
C772        F773   1.358       .  S
F776       C2641   1.358       .  S
C777        C778   1.408       .  A
C777        C782   1.397       .  A
C777        F784   1.358       .  S
C778        C779   1.406       .  A
C779        C780   1.398       .  A
C779        F786   1.358       .  S
C780        C781   1.410       .  A
C780        F785   1.358       .  S
C781        C782   1.408       .  A
C782        F783   1.358       .  S
C787        C788   1.407       .  A
C787        C792   1.400       .  A
C787        F794   1.358       .  S
C788        C789   1.408       .  A
C789        C790   1.392       .  A
C789        F796   1.359       .  S
C790        C791   1.401       .  A
C790       F1731   1.359       .  S
C791        C792   1.403       .  A
C792        F793   1.358       .  S
F795       C1726   1.359   1_545  S
C797        C798   1.405       .  A
C797        C802   1.405       .  A
C797       F2676   1.358       .  S
C798       C1932   1.468       .  S
C798        C799   1.402       .  A
C799        C800   1.389       .  A
C799        F806   1.356       .  S
C800        C801   1.404       .  A
C800        F805   1.358       .  S
C801        C802   1.408       .  A
C802        F803   1.358       .  S
F804       C2669   1.358       .  S
C807        C812   1.404       .  A
C807       C1744   1.406   1_545  A
C807        F814   1.357       .  S
C808        C809   1.403       .  A
C808       C1743   1.406       .  A
C809        C810   1.400       .  A
C809        F816   1.357       .  S
C810       C1747   1.406       .  A
C810        F815   1.357       .  S
C811        C812   1.406       .  A
C811       C1746   1.408   1_545  A
C812        F813   1.357       .  S
C817        C818   1.403       .  A
C817        C822   1.401       .  A
C817        F824   1.358       .  S
C818       C2691   1.407   1_455  A
C819        C820   1.400       .  A
C819       C2690   1.407       .  A
C819        F826   1.357       .  S
C820        C821   1.403       .  A
C820        F825   1.358       .  S
C821       C2694   1.407       .  A
C822       C2693   1.407   1_455  A
C822        F823   1.356       .  S
C827        C828   1.404       .  A
C827        C832   1.398       .  A
C827        F834   1.358       .  S
C828        C829   1.405       .  A
C829        C830   1.395       .  A
C829        F836   1.358       .  S
C830        C831   1.408       .  A
C830        F835   1.358       .  S
C831        C832   1.410       .  A
C832        F833   1.358       .  S
C837        C838   1.409       .  A
C837        C842   1.397       .  A
C837        F844   1.358       .  S
C838        C839   1.407       .  A
C839        C840   1.399       .  A
C839        F846   1.358       .  S
C840        C841   1.409       .  A
C840        F845   1.358       .  S
C841        C842   1.406       .  A
C842        F843   1.358       .  S
C847        C848   1.406       .  A
C847        C852   1.403       .  A
C847       F1790   1.358       .  S
C848       C1068   1.467   1_545  S
C848        C849   1.403       .  A
C849        C850   1.389       .  A
C849        F856   1.357       .  S
C850        C851   1.402       .  A
C850        F855   1.357       .  S
C851       C1910   1.467       .  S
C851        C852   1.407       .  A
C852       F2725   1.358       .  S
F853       C2724   1.358       .  S
F854       C1783   1.358       .  S
C857        C858   1.406       .  A
C857        C862   1.402       .  A
C857        F864   1.358       .  S
C858        C859   1.402       .  A
C859        C860   1.390       .  A
C859        F866   1.355       .  S
C860        C861   1.403       .  A
C860        F865   1.358       .  S
C861       C1002   1.469   1_545  S
C861        C862   1.407       .  A
C862       F1799   1.358       .  S
F863       C1798   1.358       .  S
C867        C868   1.404       .  A
C867        C872   1.402       .  A
C867        F874   1.358       .  S
C868        C869   1.404       .  A
C869        C870   1.399       .  A
C869        F876   1.355       .  S
C870        C871   1.402       .  A
C870        F875   1.357       .  S
C871        C872   1.405       .  A
C872        F873   1.357       .  S
C877        C878   1.406       .  A
C877        C882   1.396       .  A
C877        F884   1.358       .  S
C878        C879   1.407       .  A
C879        C880   1.403       .  A
C879       F2758   1.358       .  S
C880        C881   1.406       .  A
C880        F885   1.358       .  S
C881        C882   1.404       .  A
C882        F883   1.358       .  S
F886       C2751   1.358       .  S
C887        C888   1.413       .  A
C887        C892   1.397       .  A
C887        F894   1.358       .  S
C888        C889   1.411       .  A
C889        C890   1.396       .  A
C889       F1832   1.358       .  S
C890        C891   1.406       .  A
C890       F1831   1.358       .  S
C891        C892   1.403       .  A
C892        F893   1.358       .  S
F895       C1826   1.358       .  S
F896       C1825   1.358       .  S
C897        C898   1.402       .  A
C897        C902   1.392       .  A
C897        F904   1.357       .  S
C898        C952   1.468       .  S
C898        C899   1.405       .  A
C899        C900   1.403       .  A
C899       F1842   1.358       .  S
C900        C901   1.409       .  A
C900        F905   1.358       .  S
C901        C902   1.405       .  A
C902        F903   1.357       .  S
F906       C1835   1.358       .  S
C907        C912   1.401       .  A
C907       C2780   1.406       .  A
C907        F914   1.357       .  S
C908        C909   1.404       .  A
C908       C2779   1.406   1_455  A
C909        C910   1.401       .  A
C909        F916   1.358       .  S
C910       C2783   1.405   1_455  A
C910        F915   1.357       .  S
C911        C912   1.403       .  A
C911       C2782   1.405       .  A
C912        F913   1.357       .  S
C917        C918   1.403       .  A
C917       C1858   1.401       .  A
C917        F924   1.357       .  S
C918        C919   1.407       .  A
C919       C1856   1.404       .  A
C919        F926   1.357       .  S
C920        C921   1.405       .  A
C920       C1855   1.402       .  A
C920        F925   1.357       .  S
C921        C922   1.406   1_545  A
C922       C1853   1.400       .  A
C922        F923   1.357       .  S
C927        C928   1.404       .  A
C927        C932   1.392       .  A
C927        F934   1.357       .  S
C928       C1894   1.473   1_455  S
C928        C929   1.407       .  A
C929        C930   1.401       .  A
C929       F2808   1.358       .  S
C930        C931   1.407       .  A
C930        F935   1.358       .  S
C931        C932   1.404       .  A
C932        F933   1.357       .  S
F936       C2801   1.358       .  S
Fe937       O953   2.038       .  S
Fe937       O943   2.058       .  S
Fe937       O950   2.050       .  S
Fe937       O942   2.044       .  S
Fe937       O948   1.952       .  S
Fe938       O941   2.051       .  S
Fe938       O945   2.076       .  S
Fe938       O949   2.071       .  S
Fe938       O954   2.066       .  S
Fe938       O948   1.982       .  S
Fe939       O957   2.081       .  S
Fe939       O944   2.060       .  S
Fe939       O951   2.079       .  S
Fe939       O940   2.103       .  S
Fe939       O948   1.981       .  S
O940        C947   1.274       .  A
O941        C955   1.267       .  A
O942        C947   1.264       .  A
O943        C946   1.267       .  A
O944        C956   1.270       .  A
O945        C958   1.268       .  A
C946        O951   1.269       .  A
C946       C1847   1.471       .  S
C947       C1857   1.478       .  S
O949        C952   1.268       .  A
O950        C952   1.266       .  A
O953        C958   1.265       .  A
O954        C956   1.271       .  A
C955        O957   1.271       .  A
C955       C1817   1.472       .  S
C956       C1824   1.486       .  S
C958       C3736   1.469       .  S
Fe959       O975   2.071       .  S
Fe959       O965   2.044       .  S
Fe959       O972   2.064       .  S
Fe959       O964   2.055       .  S
Fe959       O970   1.985       .  S
Fe960       O963   2.056       .  S
Fe960       O967   2.044       .  S
Fe960       O971   2.055       .  S
Fe960       O976   2.045       .  S
Fe960       O970   1.954       .  S
Fe961       O979   2.071       .  S
Fe961       O966   2.094       .  S
Fe961       O973   2.071       .  S
Fe961       O962   2.058       .  S
Fe961       O970   1.985       .  S
O962        C969   1.269       .  A
O963        C977   1.266       .  A
O964        C969   1.269       .  A
O965        C968   1.266       .  A
O966        C978   1.272       .  A
O967        C980   1.267       .  A
C968        O973   1.271       .  A
C968       C1764   1.474       .  S
C969       C1774   1.475       .  S
O971        C974   1.267       .  A
O972        C974   1.265       .  A
C974       C3659   1.469   1_455  S
O975        C980   1.268       .  A
O976        C978   1.266       .  A
C977        O979   1.266       .  A
C977       C1804   1.467       .  S
C978       C1844   1.473       .  S
C980       C1794   1.469       .  S
Fe981       O997   2.040       .  S
Fe981       O987   2.057       .  S
Fe981       O994   2.049       .  S
Fe981       O986   2.046       .  S
Fe981       O992   1.955       .  S
Fe982       O985   2.045       .  S
Fe982       O989   2.073       .  S
Fe982       O993   2.067       .  S
Fe982       O998   2.056       .  S
Fe982       O992   1.989       .  S
Fe983      O1001   2.075       .  S
Fe983       O988   2.066       .  S
Fe983       O995   2.086       .  S
Fe983       O984   2.090       .  S
Fe983       O992   1.985       .  S
O984        C991   1.272       .  A
O985        C999   1.267       .  A
O986        C991   1.265       .  A
O987        C990   1.266       .  A
O988       C1000   1.270       .  A
O989       C1002   1.268       .  A
C990        O995   1.270       .  A
C990       C1744   1.476       .  S
C991       C1754   1.472       .  S
O993        C996   1.266       .  A
O994        C996   1.266       .  A
C996       C3606   1.468   1_455  S
O997       C1002   1.266       .  A
O998       C1000   1.268       .  A
C999       O1001   1.271       .  A
C999       C1724   1.476       .  S
C1000      C1717   1.482       .  S
Fe1003     O1019   2.066       .  S
Fe1003     O1009   2.048       .  S
Fe1003     O1016   2.069       .  S
Fe1003     O1008   2.048       .  S
Fe1003     O1014   1.989       .  S
Fe1004     O1007   2.047       .  S
Fe1004     O1011   2.045       .  S
Fe1004     O1015   2.048       .  S
Fe1004     O1020   2.044       .  S
Fe1004     O1014   1.958       .  S
Fe1005     O1023   2.078       .  S
Fe1005     O1010   2.095       .  S
Fe1005     O1017   2.079       .  S
Fe1005     O1006   2.068       .  S
Fe1005     O1014   1.990       .  S
O1006      C1013   1.270       .  A
O1007      C1021   1.264       .  A
O1008      C1013   1.266       .  A
O1009      C1012   1.267       .  A
O1010      C1022   1.273       .  A
O1011      C1024   1.266       .  A
C1012      O1017   1.272       .  A
C1012      C1687   1.478       .  S
C1013      C1694   1.476       .  S
O1015      C1018   1.266       .  A
O1016      C1018   1.267       .  A
O1019      C1024   1.267       .  A
O1020      C1022   1.265       .  A
C1021      O1023   1.268       .  A
C1021      C1807   1.467       .  S
C1022      C1747   1.474       .  S
C1024      C1867   1.467       .  S
Fe1025     O1041   2.069       .  S
Fe1025     O1031   2.051       .  S
Fe1025     O1038   2.074       .  S
Fe1025     O1030   2.048       .  S
Fe1025     O1036   1.991       .  S
Fe1026     O1029   2.052       .  S
Fe1026     O1033   2.051       .  S
Fe1026     O1037   2.050       .  S
Fe1026     O1042   2.054       .  S
Fe1026     O1036   1.960       .  S
Fe1027     O1045   2.081       .  S
Fe1027     O1032   2.086       .  S
Fe1027     O1039   2.070       .  S
Fe1027     O1028   2.068       .  S
Fe1027     O1036   1.991       .  S
O1028      C1035   1.270       .  A
O1029      C1043   1.266       .  A
O1030      C1035   1.267       .  A
O1031      C1034   1.268       .  A
O1032      C1044   1.271       .  A
O1033      C1046   1.267       .  A
C1034      O1039   1.271       .  A
C1034      C1664   1.476       .  S
C1035      C1654   1.478       .  S
O1037      C1040   1.267       .  A
O1038      C1040   1.267       .  A
C1040      C1837   1.472       .  S
O1041      C1046   1.267       .  A
O1042      C1044   1.267       .  A
C1043      O1045   1.269       .  A
C1043      C1757   1.472       .  S
C1044      C1674   1.474       .  S
C1046      C3576   1.469       .  S
Fe1047     O1063   2.067       .  S
Fe1047     O1053   2.047       .  S
Fe1047     O1060   2.073       .  S
Fe1047     O1052   2.044       .  S
Fe1047     O1058   1.993       .  S
Fe1048     O1051   2.050       .  S
Fe1048     O1055   2.041       .  S
Fe1048     O1059   2.044       .  S
Fe1048     O1064   2.047       .  S
Fe1048     O1058   1.958       .  S
Fe1049     O1067   2.088       .  S
Fe1049     O1054   2.086       .  S
Fe1049     O1061   2.074       .  S
Fe1049     O1050   2.070       .  S
Fe1049     O1058   1.989       .  S
O1050      C1057   1.270       .  A
O1051      C1065   1.265       .  A
O1052      C1057   1.266       .  A
O1053      C1056   1.266       .  A
O1054      C1066   1.270       .  A
O1055      C1068   1.265       .  A
C1056      O1061   1.272       .  A
C1056      C1644   1.484       .  S
C1057      C1634   1.470       .  S
O1059      C1062   1.265       .  A
O1060      C1062   1.267       .  A
C1062      C1737   1.472       .  S
O1063      C1068   1.266       .  A
O1064      C1066   1.265       .  A
C1065      O1067   1.271       .  A
C1065      C1854   1.474       .  S
C1066      C1677   1.471       .  S
Fe1069     O1085   2.071       .  S
Fe1069     O1075   2.058       .  S
Fe1069     O1082   2.075       .  S
Fe1069     O1074   2.051       .  S
Fe1069     O1080   1.984       .  S
Fe1070     O1073   2.048       .  S
Fe1070     O1077   2.045       .  S
Fe1070     O1081   2.042       .  S
Fe1070     O1086   2.051       .  S
Fe1070     O1080   1.954       .  S
Fe1071     O1083   2.062       .  S
Fe1071     O1072   2.071       .  S
O1072      C1079   1.272       .  A
O1073      C1087   1.266       .  A
O1076      C1088   1.268       .  A
O1077      C1090   1.265       .  A
C1078      O1083   1.269       .  A
C1078      C1827   1.475       .  S
C1079      C1697   1.474       .  S
O1081      C1084   1.267       .  A
O1082      C1084   1.270       .  A
C1084      C1617   1.471       .  S
O1085      C1090   1.267       .  A
O1086      C1088   1.265       .  A
C1087      O1089   1.273       .  A
C1087      C1607   1.476       .  S
C1088      C1624   1.469       .  S
C1090      C1594   1.469       .  S
Fe1091     O1107   2.044       .  S
Fe1091     O1097   2.050       .  S
Fe1091     O1104   2.037       .  S
Fe1091     O1096   2.050       .  S
Fe1091     O1102   1.957       .  S
Fe1092     O1095   2.059       .  S
Fe1092     O1099   2.073       .  S
Fe1092     O1103   2.078       .  S
Fe1092     O1108   2.053       .  S
Fe1092     O1102   1.994       .  S
Fe1093     O1111   2.071       .  S
Fe1093     O1098   2.058       .  S
Fe1093     O1105   2.077       .  S
Fe1093     O1094   2.093       .  S
Fe1093     O1102   1.986       .  S
O1094      C1101   1.272       .  A
O1095      C1109   1.268       .  A
O1096      C1101   1.265       .  A
O1097      C1100   1.265       .  A
O1098      C1110   1.269       .  A
O1099      C1112   1.269       .  A
C1100      O1105   1.268       .  A
C1100      C1627   1.469       .  S
C1101      C1574   1.476       .  S
O1103      C1106   1.268       .  A
O1104      C1106   1.264       .  A
C1106      C1564   1.471       .  S
O1107      C1112   1.267       .  A
O1108      C1110   1.268       .  A
C1109      O1111   1.271       .  A
C1109      C1557   1.480       .  S
C1110      C1544   1.472       .  S
C1112      C1584   1.472       .  S
Fe1113     O1129   2.056       .  S
Fe1113     O1119   2.071       .  S
Fe1113     O1126   2.083       .  S
Fe1113     O1118   2.040       .  S
Fe1113     O1124   1.963       .  S
Fe1114     O1117   2.040       .  S
Fe1114     O1121   2.056       .  S
Fe1114     O1125   2.043       .  S
Fe1114     O1130   2.067       .  S
Fe1114     O1124   1.937       .  S
Fe1115     O3005   2.114       .  S
Fe1115     O1120   2.073       .  S
Fe1115     O1127   2.057       .  S
Fe1115     O1116   2.095       .  S
Fe1115     O2996   1.961       .  S
O1116      C1123   1.275       .  A
O1117      C1131   1.265       .  A
O1118      C2995   1.266   1_455  A
O1119      C2994   1.271   1_455  A
O1120      C3004   1.268       .  A
O1121      C1134   1.268       .  A
C1122      O2991   1.271       .  A
C1122      O1127   1.271       .  A
C1122      C1667   1.484       .  S
C1123      O2990   1.266       .  A
C1123      C1814   1.475       .  S
O1124     Fe2987   1.961       .  S
O1125      C1128   1.267       .  A
O1126      C1128   1.271       .  A
C1128      C1524   1.474       .  S
O1129      C1134   1.265       .  A
O1130      C1132   1.269       .  A
C1131      O1133   1.277       .  A
C1131      C1577   1.478       .  S
C1132      O2992   1.268       .  A
C1132      C1537   1.470       .  S
O1133     Fe2987   2.114       .  S
C1134      C1614   1.460       .  S
Fe1135     O1151   2.070       .  S
Fe1135     O1141   2.046       .  S
Fe1135     O1148   2.069       .  S
Fe1135     O1140   2.045       .  S
Fe1135     O1146   1.989       .  S
Fe1136     O1139   2.050       .  S
Fe1136     O1143   2.044       .  S
Fe1136     O1147   2.048       .  S
Fe1136     O1152   2.043       .  S
Fe1136     O1146   1.958       .  S
Fe1137     O1155   2.076       .  S
Fe1137     O1142   2.093       .  S
Fe1137     O1149   2.079       .  S
Fe1137     O1138   2.060       .  S
Fe1137     O1146   1.992       .  S
O1138      C1145   1.269       .  A
O1139      C1153   1.266       .  A
O1140      C1145   1.267       .  A
O1141      C1144   1.266       .  A
O1142      C1154   1.271       .  A
O1143      C1156   1.266       .  A
C1144      O1149   1.272       .  A
C1144      C1497   1.482       .  S
C1145      C1484   1.470       .  S
O1147      C1150   1.266       .  A
O1148      C1150   1.266       .  A
C1150      C1567   1.471       .  S
O1151      C1156   1.267       .  A
O1152      C1154   1.264       .  A
C1153      O1155   1.268       .  A
C1153      C1517   1.467       .  S
C1154      C1534   1.473       .  S
C1156      C1504   1.470       .  S
Fe1157     O1173   2.066       .  S
Fe1157     O1163   2.068       .  S
Fe1157     O1170   2.082       .  S
Fe1157     O1162   2.044       .  S
Fe1157     O1168   1.985       .  S
Fe1158     O1161   2.040       .  S
Fe1158     O1165   2.049       .  S
Fe1158     O1169   2.036       .  S
Fe1158     O1174   2.056       .  S
Fe1158     O1168   1.954       .  S
Fe1159     O1177   2.101       .  S
Fe1159     O1164   2.085       .  S
Fe1159     O1171   2.068       .  S
Fe1159     O1160   2.086       .  S
Fe1159     O1168   1.984       .  S
O1160      C1167   1.273       .  A
O1161      C1175   1.264       .  A
O1162      C1167   1.266       .  A
O1163      C1166   1.270       .  A
O1164      C1176   1.270       .  A
O1165      C1178   1.267       .  A
C1166      O1171   1.271       .  A
C1166      C1454   1.486       .  S
C1167      C1464   1.472       .  S
O1169      C1172   1.265       .  A
O1170      C1172   1.269       .  A
C1172      C1507   1.474       .  S
O1173      C1178   1.266       .  A
O1174      C1176   1.266       .  A
C1175      O1177   1.273       .  A
C1175      C1604   1.475       .  S
C1176      C1474   1.473       .  S
C1178      C1587   1.467       .  S
Fe1179     O1195   2.043       .  S
Fe1179     O1185   2.041       .  S
Fe1179     O1192   2.037       .  S
Fe1179     O1184   2.046       .  S
Fe1179     O1190   1.960       .  S
Fe1180     O1183   2.055       .  S
Fe1180     O1187   2.073       .  S
Fe1180     O1191   2.075       .  S
Fe1180     O1196   2.057       .  S
Fe1180     O1190   1.993       .  S
Fe1181     O1199   2.062       .  S
Fe1181     O1186   2.069       .  S
Fe1181     O1193   2.093       .  S
Fe1181     O1182   2.080       .  S
Fe1181     O1190   1.990       .  S
O1182      C1189   1.269       .  A
O1183      C1197   1.269       .  A
O1184      C1189   1.265       .  A
O1185      C1188   1.263       .  A
O1186      C1198   1.271       .  A
O1187      C1200   1.268       .  A
C1188      O1193   1.270       .  A
C1188      C1477   1.474       .  S
C1189      C1514   1.467       .  S
O1191      C1194   1.269       .  A
O1192      C1194   1.264       .  A
C1194      C1527   1.468       .  S
O1195      C1200   1.266       .  A
O1196      C1198   1.268       .  A
C1197      O1199   1.270       .  A
C1197      C1657   1.473       .  S
C1198      C1684   1.480       .  S
C1200      C1597   1.473       .  S
Fe1201     O1217   2.039       .  S
Fe1201     O1207   2.049       .  S
Fe1201     O1214   2.046       .  S
Fe1201     O1206   2.040       .  S
Fe1201     O1212   1.959       .  S
Fe1202     O1205   2.044       .  S
Fe1202     O1209   2.084       .  S
Fe1202     O1213   2.067       .  S
Fe1202     O1218   2.066       .  S
Fe1202     O1212   1.993       .  S
Fe1203     O1221   2.060       .  S
Fe1203     O1208   2.064       .  S
Fe1203     O1215   2.087       .  S
Fe1203     O1204   2.082       .  S
Fe1203     O1212   1.989       .  S
O1204      C1211   1.270       .  A
O1205      C1219   1.266       .  A
O1206      C1211   1.264       .  A
O1207      C1210   1.264       .  A
O1208      C1220   1.269       .  A
O1209      C1222   1.270       .  A
C1210      O1215   1.269       .  A
C1210      C1444   1.474       .  S
C1211      C1424   1.465       .  S
O1213      C1216   1.267       .  A
O1214      C1216   1.265       .  A
C1216      C1414   1.467       .  S
O1217      C1222   1.265       .  A
O1218      C1220   1.270       .  A
C1219      O1221   1.270       .  A
C1219      C1487   1.470       .  S
C1220      C1457   1.480       .  S
C1222      C1434   1.477       .  S
Fe1223     O1239   2.079       .  S
Fe1223     O1229   2.049       .  S
Fe1223     O1236   2.072       .  S
Fe1223     O1228   2.060       .  S
Fe1223     O1234   1.993       .  S
Fe1224     O1227   2.052       .  S
Fe1224     O1231   2.038       .  S
Fe1224     O1235   2.043       .  S
Fe1224     O1240   2.044       .  S
Fe1224     O1234   1.958       .  S
Fe1225     O3115   2.073       .  S
Fe1225     O1230   2.095       .  S
Fe1225     O1237   2.069   1_655  S
Fe1225     O1226   2.056   1_655  S
Fe1225     O3106   1.989       .  S
O1226      C1233   1.269       .  A
O1227      C1241   1.265       .  A
O1228      C3105   1.270       .  A
O1229      C3104   1.266       .  A
O1230      C3114   1.272       .  A
O1231      C1244   1.265       .  A
C1232      O3101   1.266   1_455  A
C1232      O1237   1.270       .  A
C1232      C1714   1.475       .  S
C1233      O3100   1.270   1_455  A
C1233      C1777   1.475       .  S
O1234     Fe3097   1.988       .  S
O1235      C1238   1.265       .  A
O1236      C1238   1.267       .  A
C1238      C1387   1.471       .  S
O1239      C1244   1.270       .  A
O1240      C1242   1.264       .  A
C1241      O1243   1.267       .  A
C1241      C1404   1.467       .  S
C1242      O3102   1.272       .  A
C1242      C1447   1.475       .  S
O1243     Fe3097   2.073       .  S
C1244      C1394   1.474       .  S
Fe1245     O1261   2.071       .  S
Fe1245     O1251   2.064       .  S
Fe1245     O1258   2.080       .  S
Fe1245     O1250   2.047       .  S
Fe1245     O1256   1.978       .  S
Fe1246     O1249   2.036       .  S
Fe1246     O1253   2.053       .  S
Fe1246     O1257   2.041       .  S
Fe1246     O1262   2.055       .  S
Fe1246     O1256   1.952       .  S
Fe1247     O1265   2.096       .  S
Fe1247     O1252   2.069       .  S
Fe1247     O1259   2.049       .  S
Fe1247     O1248   2.080       .  S
Fe1247     O1256   1.984       .  S
O1248      C1255   1.271       .  A
O1249      C1263   1.263       .  A
O1250      C1255   1.267       .  A
O1251      C1254   1.271       .  A
O1252      C1264   1.267       .  A
O1253      C1266   1.267       .  A
C1254      O1259   1.268       .  A
C1254      C1547   1.477       .  S
C1255      C1467   1.471       .  S
O1257      C1260   1.266       .  A
O1258      C1260   1.270       .  A
C1260      C1367   1.476       .  S
O1261      C1266   1.267       .  A
O1262      C1264   1.266       .  A
C1263      O1265   1.272       .  A
C1263      C1407   1.470       .  S
C1264      C1377   1.465       .  S
C1266      C1437   1.473       .  S
Fe1267     O1283   2.076       .  S
Fe1267     O1273   2.057       .  S
Fe1267     O1280   2.073       .  S
Fe1267     O1272   2.059       .  S
Fe1267     O1278   1.990       .  S
Fe1268     O1271   2.042       .  S
Fe1268     O1275   2.040       .  S
Fe1268     O1279   2.045       .  S
Fe1268     O1284   2.042       .  S
Fe1268     O1278   1.962       .  S
Fe1269     O1287   2.091       .  S
Fe1269     O1274   2.089       .  S
Fe1269     O1281   2.069       .  S
Fe1269     O1270   2.074       .  S
Fe1269     O1278   1.987       .  S
O1270      C1277   1.272       .  A
O1271      C1285   1.264       .  A
O1272      C1277   1.269       .  A
O1273      C1276   1.268       .  A
O1274      C1286   1.270       .  A
O1275      C1288   1.264       .  A
C1276      O1281   1.271       .  A
C1276      C1494   1.476       .  S
C1277      C1554   1.484       .  S
O1279      C1282   1.266       .  A
O1280      C1282   1.269       .  A
C1282      C1417   1.470       .  S
O1283      C1288   1.268       .  A
O1284      C1286   1.263       .  A
C1285      O1287   1.271       .  A
C1285      C1344   1.471       .  S
C1286      C1354   1.470       .  S
C1288      C1364   1.471       .  S
Fe1289     O1305   2.064       .  S
Fe1289     O1295   2.076       .  S
Fe1289     O1302   2.085       .  S
Fe1289     O1294   2.043       .  S
Fe1289     O1300   1.967       .  S
Fe1290     O1293   2.043       .  S
Fe1290     O1297   2.060       .  S
Fe1290     O1301   2.045       .  S
Fe1290     O1306   2.068       .  S
Fe1290     O1300   1.941       .  S
Fe1291     O1309   2.092       .  S
Fe1291     O1296   2.076       .  S
Fe1291     O1303   2.054   1_545  S
Fe1291     O1292   2.075   1_545  S
O1292      C1299   1.270       .  A
O1293      C1307   1.266       .  A
O1297      C1310   1.269       .  A
C1298      O1303   1.269       .  A
C1298      C1647   1.477       .  S
C1299      C1727   1.460       .  S
O1301      C1304   1.267       .  A
O1302      C1304   1.271       .  A
C1304      C1334   1.474       .  S
O1305      C1310   1.267       .  A
O1306      C1308   1.268       .  A
C1307      C1427   1.471       .  S
C1308      C1357   1.472       .  S
C1310      C1384   1.467       .  S
Fe1311     O1327   2.044       .  S
Fe1311     O1317   2.049       .  S
Fe1311     O1324   2.044       .  S
Fe1311     O1316   2.042       .  S
Fe1311     O1322   1.958       .  S
Fe1312     O1315   2.048       .  S
Fe1312     O1319   2.076       .  S
Fe1312     O1323   2.067       .  S
Fe1312     O1328   2.060       .  S
Fe1312     O1322   1.988       .  S
Fe1313     O1331   2.064       .  S
Fe1313     O1318   2.056       .  S
Fe1313     O1325   2.075       .  S
Fe1313     O1314   2.087       .  S
Fe1313     O1322   1.988       .  S
O1314      C1321   1.270       .  A
O1315      C1329   1.266       .  A
O1316      C1321   1.264       .  A
O1317      C1320   1.265       .  A
O1318      C1330   1.269       .  A
O1319      C1332   1.269       .  A
C1320      O1325   1.267       .  A
C1320      C1374   1.466       .  S
C1321      C1347   1.470       .  S
O1323      C1326   1.266       .  A
O1324      C1326   1.264       .  A
C1326      C1337   1.466       .  S
O1327      C1332   1.267       .  A
O1328      C1330   1.270       .  A
C1329      O1331   1.269       .  A
C1329      C1637   1.475       .  S
C1330      C1767   1.474       .  S
C1332      C1397   1.476       .  S
C1333      C1334   1.407       .  A
C1333      C1338   1.401       .  A
C1333      F1340   1.358       .  S
C1334      C1335   1.405       .  A
C1335      C1336   1.393       .  A
C1335      F1342   1.356       .  S
C1336      C1337   1.402       .  A
C1336      F1341   1.358       .  S
C1337      C1338   1.405       .  A
C1338      F1339   1.358       .  S
C1343      C1344   1.403       .  A
C1343      C1348   1.400       .  A
C1343      F1350   1.358       .  S
C1344      C1345   1.406       .  A
C1345      C1346   1.400       .  A
C1345      F1352   1.357       .  S
C1346      C1347   1.402       .  A
C1346      F1351   1.358       .  S
C1347      C1348   1.406       .  A
C1348      F1349   1.358       .  S
C1353      C1354   1.404       .  A
C1353      C1358   1.401       .  A
C1353      F1360   1.358       .  S
C1354      C1355   1.406       .  A
C1355      C1356   1.402       .  A
C1355      F1362   1.357       .  S
C1356      C1357   1.403       .  A
C1356      F1361   1.358       .  S
C1357      C1358   1.404       .  A
C1358      F1359   1.356       .  S
C1363      C1364   1.405       .  A
C1363      C1368   1.392       .  A
C1363      F1370   1.358       .  S
C1364      C1365   1.405       .  A
C1365      C1366   1.403       .  A
C1365      F1372   1.357   1_556  S
C1366      C1367   1.408       .  A
C1366      F1371   1.358   1_556  S
C1367      C1368   1.406       .  A
C1368      F1369   1.358       .  S
C1373      C1374   1.404       .  A
C1373      C1378   1.397       .  A
C1373      F1380   1.358       .  S
C1374      C1375   1.403       .  A
C1375      C1376   1.400       .  A
C1375      F1382   1.358       .  S
C1376      C1377   1.405       .  A
C1376      F1381   1.358       .  S
C1377      C1378   1.402       .  A
C1378      F1379   1.358       .  S
C1383      C1384   1.406       .  A
C1383      C1388   1.404       .  A
C1383      F1390   1.358       .  S
C1384      C1385   1.401       .  A
C1385      C1386   1.391       .  A
C1385      F1392   1.356       .  S
C1386      C1387   1.404       .  A
C1386      F1391   1.358       .  S
C1387      C1388   1.408       .  A
C1388      F1389   1.358       .  S
C1393      C1394   1.406       .  A
C1393      C1398   1.404       .  A
C1393      F1400   1.358       .  S
C1394      C1395   1.405       .  A
C1395      C1396   1.390       .  A
C1395      F1402   1.357       .  S
C1396      C1397   1.405       .  A
C1396      F1401   1.358       .  S
C1397      C1398   1.409       .  A
C1398      F1399   1.357       .  S
C1403      C1404   1.401       .  A
C1403      C1408   1.399       .  A
C1403      F1410   1.358       .  S
C1404      C1405   1.405       .  A
C1405      C1406   1.400       .  A
C1405      F1412   1.357       .  S
C1406      C1407   1.403       .  A
C1406      F1411   1.358       .  S
C1407      C1408   1.407       .  A
C1408      F1409   1.357       .  S
C1413      C1414   1.403       .  A
C1413      C1418   1.394       .  A
C1413      F1420   1.357       .  S
C1414      C1415   1.405       .  A
C1415      C1416   1.400       .  A
C1415      F1422   1.358   1_556  S
C1416      C1417   1.406       .  A
C1416      F1421   1.358   1_556  S
C1417      C1418   1.405       .  A
C1418      F1419   1.358       .  S
C1423      C1424   1.405       .  A
C1423      C1428   1.400       .  A
C1423      F1430   1.357       .  S
C1424      C1425   1.401       .  A
C1425      C1426   1.398       .  A
C1425      F1432   1.358       .  S
C1426      C1427   1.406       .  A
C1426      F1431   1.357       .  S
C1427      C1428   1.403       .  A
C1433      C1434   1.406       .  A
C1433      C1438   1.392       .  A
C1433      F1440   1.358       .  S
C1434      C1435   1.408       .  A
C1435      C1436   1.405       .  A
C1435      F1442   1.357   1_556  S
C1436      C1437   1.406       .  A
C1436      F1441   1.357   1_556  S
C1437      C1438   1.403       .  A
C1438      F1439   1.357       .  S
C1443      C1444   1.406       .  A
C1443      C1448   1.402       .  A
C1443      F1450   1.357       .  S
C1444      C1445   1.404       .  A
C1445      C1446   1.402       .  A
C1445      F1452   1.358       .  S
C1446      C1447   1.407       .  A
C1446      F1451   1.358       .  S
C1447      C1448   1.404       .  A
C1448      F1449   1.358       .  S
C1453      C1454   1.410   1_556  A
C1453      F1460   1.358       .  S
C1454      C1455   1.409       .  A
C1455      F1462   1.358       .  S
C1456      C1457   1.409   1_554  A
C1456      F1461   1.358       .  S
C1457      C1458   1.407       .  A
C1458      F1459   1.358       .  S
C1463      C1464   1.406       .  A
C1463      C1468   1.403   1_554  A
C1463      F1470   1.358       .  S
C1464      C1465   1.405       .  A
C1465      C1466   1.394   1_554  A
C1465      F1472   1.359       .  S
C1466      C1467   1.404       .  A
C1466      F1471   1.359       .  S
C1467      C1468   1.406       .  A
C1468      F1469   1.358       .  S
C1473      C1474   1.407       .  A
C1473      C1478   1.405       .  A
C1473      F1480   1.357       .  S
C1474      C1475   1.402       .  A
C1475      C1476   1.399       .  A
C1475      F1482   1.357       .  S
C1476      C1477   1.405       .  A
C1476      F1481   1.357       .  S
C1477      C1478   1.405       .  A
C1478      F1479   1.358       .  S
C1483      C1484   1.407   1_556  A
C1483      C3360   1.392   1_455  A
C1483      F1490   1.358       .  S
C1484      C1485   1.405       .  A
C1485      C3358   1.395   1_455  A
C1485      F1492   1.358       .  S
C1486      C3357   1.395       .  A
C1486      C1487   1.409   1_554  A
C1486      F1491   1.358       .  S
C1487      C1488   1.404       .  A
C1488      C3355   1.392       .  A
C1488      F1489   1.358       .  S
C1493      C1494   1.404       .  A
C1493      C1498   1.396       .  A
C1493      F1500   1.358       .  S
C1494      C1495   1.408   1_556  A
C1495      C1496   1.399       .  A
C1495      F1502   1.358       .  S
C1496      C1497   1.407       .  A
C1496      F1501   1.358       .  S
C1497      C1498   1.411   1_554  A
C1498      F1499   1.358       .  S
C1503      C1504   1.407       .  A
C1503      C1508   1.403       .  A
C1503      F1510   1.358   1_554  S
C1504      C1505   1.403       .  A
C1505      C1506   1.390       .  A
C1505      F1512   1.357       .  S
C1506      C1507   1.406       .  A
C1506      F1511   1.358       .  S
C1507      C1508   1.408       .  A
C1508      F1509   1.358   1_554  S
C1513      C1514   1.405       .  A
C1513      C1518   1.400       .  A
C1513      F1520   1.357       .  S
C1514      C1515   1.402       .  A
C1515      C1516   1.399       .  A
C1515      F1522   1.358       .  S
C1516      C1517   1.404       .  A
C1516      F1521   1.357       .  S
C1517      C1518   1.403       .  A
C1518      F1519   1.358       .  S
C1523      C1524   1.405       .  A
C1523      C1528   1.392       .  A
C1523      F1530   1.358       .  S
C1524      C1525   1.409       .  A
C1525      C1526   1.402       .  A
C1525      F1532   1.358       .  S
C1526      C1527   1.405       .  A
C1526      F1531   1.358       .  S
C1527      C1528   1.403       .  A
C1528      F1529   1.357       .  S
C1533      C1534   1.405       .  A
C1533      C1538   1.399       .  A
C1533      F1540   1.357       .  S
C1534      C1535   1.405       .  A
C1535      C1536   1.403       .  A
C1535      F1542   1.358       .  S
C1536      C1537   1.406       .  A
C1536      F1541   1.357       .  S
C1537      C1538   1.402       .  A
C1538      F3411   1.357       .  S
F1539      C3410   1.357       .  S
C1543      C1544   1.405       .  A
C1543      C3420   1.394   1_455  A
C1543      F1550   1.358       .  S
C1544      C1545   1.406   1_554  A
C1545      C1546   1.395   1_455  A
C1545      F1552   1.358       .  S
C1546      C3419   1.409       .  A
C1546      F1551   1.358       .  S
C1547      C3418   1.409       .  A
C1547      C1548   1.408   1_556  A
C1548      C3415   1.394       .  A
C1548      F1549   1.358       .  S
C1553      C1554   1.411   1_554  A
C1553      F1560   1.358       .  S
C1554      C1555   1.408       .  A
C1555      F1562   1.358       .  S
C1556      C1557   1.408   1_556  A
C1556      F1561   1.358       .  S
C1557      C1558   1.406       .  A
C1558      F1559   1.358       .  S
C1563      C1564   1.406       .  A
C1563      C1568   1.405       .  A
C1563      F1570   1.358   1_554  S
C1564      C1565   1.404       .  A
C1565      C1566   1.390       .  A
C1565      F1572   1.357       .  S
C1566      C1567   1.402       .  A
C1566      F1571   1.357       .  S
C1567      C1568   1.408       .  A
C1568      F1569   1.358   1_554  S
C1573      C1574   1.403       .  A
C1573      C1578   1.402       .  A
C1573      F1580   1.358       .  S
C1574      C1575   1.407       .  A
C1575      C1576   1.402       .  A
C1575      F1582   1.357       .  S
C1576      C1577   1.404       .  A
C1576      F3453   1.357       .  S
C1577      C1578   1.408       .  A
C1578      F1579   1.357       .  S
F1581      C3448   1.357       .  S
C1583      C1584   1.408       .  A
C1583      C1588   1.402       .  A
C1583      F1590   1.358   1_554  S
C1584      C1585   1.404       .  A
C1585      C1586   1.390       .  A
C1585      F1592   1.357       .  S
C1586      C1587   1.402       .  A
C1586      F1591   1.356       .  S
C1587      C1588   1.405       .  A
C1588      F1589   1.358   1_554  S
C1593      C1594   1.405       .  A
C1593      C1598   1.404       .  A
C1593      F1600   1.358       .  S
C1594      C1595   1.403       .  A
C1595      C1596   1.390       .  A
C1595      F1602   1.356       .  S
C1596      C1597   1.404       .  A
C1596      F1601   1.358       .  S
C1597      C1598   1.409       .  A
C1598      F1599   1.358       .  S
C1603      C1604   1.407       .  A
C1603      C1608   1.401       .  A
C1603      F1610   1.356       .  S
C1604      C1605   1.403       .  A
C1605      C1606   1.402       .  A
C1605      F1612   1.357       .  S
C1606      C1607   1.407       .  A
C1606      F1611   1.356       .  S
C1607      C1608   1.403       .  A
C1608      F1609   1.358       .  S
C1613      C1614   1.403       .  A
C1613      C1618   1.400       .  A
C1613      F1620   1.358       .  S
C1614      C1615   1.401       .  A
C1615      C1616   1.391       .  A
C1615      F1622   1.358       .  S
C1616      C1617   1.406       .  A
C1616      F1621   1.357       .  S
C1617      C1618   1.407       .  A
C1618      F1619   1.358       .  S
C1623      C1624   1.406       .  A
C1623      C1628   1.401       .  A
C1623      F1630   1.357       .  S
C1624      C1625   1.403       .  A
C1625      C1626   1.399       .  A
C1625      F1632   1.357       .  S
C1626      C1627   1.404       .  A
C1626      F1631   1.357       .  S
C1627      C1628   1.404       .  A
C1628      F1629   1.358       .  S
C1633      C1634   1.406       .  A
C1633      C1638   1.394       .  A
C1633      F1640   1.358       .  S
C1634      C1635   1.404       .  A
C1635      C1636   1.397       .  A
C1635      F1642   1.358       .  S
C1636      C1637   1.409       .  A
C1636      F1641   1.358       .  S
C1637      C1638   1.406       .  A
C1638      F1639   1.358       .  S
C1643      C1644   1.412       .  A
C1643      C1648   1.395       .  A
C1643      F1650   1.358       .  S
C1644      C1645   1.409       .  A
C1645      C1646   1.398       .  A
C1645      F1652   1.358       .  S
C1646      C1647   1.407       .  A
C1646      F1651   1.358       .  S
C1647      C1648   1.405       .  A
C1648      F1649   1.359       .  S
C1653      C1654   1.407       .  A
C1653      C1658   1.396       .  A
C1653      F1660   1.358       .  S
C1654      C1655   1.410       .  A
C1655      C1656   1.395       .  A
C1655      F1662   1.358       .  S
C1656      C1657   1.404       .  A
C1656      F1661   1.358       .  S
C1657      C1658   1.407       .  A
C1658      F1659   1.358       .  S
C1663      C1664   1.404       .  A
C1663      C1668   1.398       .  A
C1663      F1670   1.358       .  S
C1664      C1665   1.407       .  A
C1665      C1666   1.395       .  A
C1665      F1672   1.358       .  S
C1666      C1667   1.409       .  A
C1666      F1671   1.358       .  S
C1667      C1668   1.412       .  A
C1668      F1669   1.358       .  S
C1673      C1674   1.405       .  A
C1673      C1678   1.400       .  A
C1673      F1680   1.356       .  S
C1674      C1675   1.404       .  A
C1675      C1676   1.402       .  A
C1675      F1682   1.358       .  S
C1676      C1677   1.406       .  A
C1676      F1681   1.357       .  S
C1677      C1678   1.403       .  A
C1678      F1679   1.357       .  S
C1683      C1684   1.410       .  A
C1683      C1688   1.400       .  A
C1683      F1690   1.358       .  S
C1684      C1685   1.406       .  A
C1685      C1686   1.396       .  A
C1685      F1692   1.358       .  S
C1686      C1687   1.408       .  A
C1686      F1691   1.358       .  S
C1687      C1688   1.406       .  A
C1688      F1689   1.358       .  S
C1693      C1694   1.409       .  A
C1693      C1698   1.396       .  A
C1693      F1700   1.358       .  S
C1694      C1695   1.406       .  A
C1695      C1696   1.397       .  A
C1695      F1702   1.358       .  S
C1696      C1697   1.408       .  A
C1696      F1701   1.358       .  S
C1697      C1698   1.404       .  A
C1698      F1699   1.358       .  S
C1703      C1704   1.403       .  A
C1703      C1708   1.393       .  A
C1703      F1710   1.356       .  S
C1704      C2918   1.470   1_455  S
C1704      C1705   1.406       .  A
C1705      C1706   1.402       .  A
C1705      F3584   1.358       .  S
C1706      C1707   1.405       .  A
C1706      F1711   1.358       .  S
C1707      C1708   1.402       .  A
C1708      F1709   1.357       .  S
F1712      C3577   1.358       .  S
C1713      C1714   1.407       .  A
C1713      C1718   1.397       .  A
C1713      F1720   1.358       .  S
C1714      C1715   1.404       .  A
C1715      C1716   1.397       .  A
C1715      F1722   1.358       .  S
C1716      C1717   1.411       .  A
C1716      F1721   1.358       .  S
C1717      C1718   1.408       .  A
C1718      F1719   1.358       .  S
C1723      C1724   1.409       .  A
C1723      C1728   1.399       .  A
C1723      F1730   1.358       .  S
C1724      C1725   1.410       .  A
C1725      C1726   1.393       .  A
C1725      F1732   1.358       .  S
C1726      C1727   1.399       .  A
C1727      C1728   1.402       .  A
C1728      F1729   1.358       .  S
C1733      C1734   1.406       .  A
C1733      C1738   1.403       .  A
C1733      F3612   1.358       .  S
C1734      C2868   1.468       .  S
C1734      C1735   1.402       .  A
C1735      C1736   1.391       .  A
C1735      F1742   1.358       .  S
C1736      C1737   1.404       .  A
C1736      F1741   1.358       .  S
C1737      C1738   1.407       .  A
C1738      F1739   1.358       .  S
F1740      C3605   1.358       .  S
C1743      C1748   1.403       .  A
C1743      F1750   1.357       .  S
C1744      C1745   1.403       .  A
C1745      C1746   1.401       .  A
C1745      F1752   1.357       .  S
C1746      F1751   1.357       .  S
C1747      C1748   1.404       .  A
C1748      F1749   1.358       .  S
C1753      C1754   1.403       .  A
C1753      C1758   1.399       .  A
C1753      F1760   1.357       .  S
C1754      C3627   1.406   1_455  A
C1755      C3626   1.406       .  A
C1755      C1756   1.402       .  A
C1755      F1762   1.357       .  S
C1756      C1757   1.404       .  A
C1756      F1761   1.358       .  S
C1757      C3630   1.404       .  A
C1758      C3629   1.404   1_455  A
C1758      F1759   1.356       .  S
C1763      C1764   1.406       .  A
C1763      C1768   1.396       .  A
C1763      F1770   1.358       .  S
C1764      C1765   1.408       .  A
C1765      C1766   1.395       .  A
C1765      F1772   1.358       .  S
C1766      C1767   1.406       .  A
C1766      F1771   1.358       .  S
C1767      C1768   1.407       .  A
C1768      F1769   1.358       .  S
C1773      C1774   1.407       .  A
C1773      C1778   1.394       .  A
C1773      F1780   1.358       .  S
C1774      C1775   1.407       .  A
C1775      C1776   1.396       .  A
C1775      F1782   1.358       .  S
C1776      C1777   1.408       .  A
C1776      F1781   1.358       .  S
C1777      C1778   1.407       .  A
C1778      F1779   1.358       .  S
C1783      C1784   1.406       .  A
C1783      C1788   1.404       .  A
C1784      C1785   1.404       .  A
C1785      C1786   1.391       .  A
C1785      F1792   1.357       .  S
C1786      C1787   1.401       .  A
C1786      F1791   1.357       .  S
C1787      C2846   1.469       .  S
C1787      C1788   1.407       .  A
C1788      F3661   1.358       .  S
F1789      C3660   1.358       .  S
C1793      C1794   1.406       .  A
C1793      C1798   1.401       .  A
C1793      F1800   1.358       .  S
C1794      C1795   1.403       .  A
C1795      C1796   1.391       .  A
C1795      F1802   1.357       .  S
C1796      C1797   1.405       .  A
C1796      F1801   1.357       .  S
C1797      C1798   1.407       .  A
C1803      C1804   1.402       .  A
C1803      C1808   1.399       .  A
C1803      F1810   1.358       .  S
C1804      C1805   1.405       .  A
C1805      C1806   1.400       .  A
C1805      F1812   1.357       .  S
C1806      C1807   1.403       .  A
C1806      F1811   1.358       .  S
C1807      C1808   1.405       .  A
C1808      F1809   1.357       .  S
C1813      C1814   1.407       .  A
C1813      C1818   1.395       .  A
C1813      F1820   1.359       .  S
C1814      C1815   1.406       .  A
C1815      C1816   1.402       .  A
C1815      F3694   1.358       .  S
C1816      C1817   1.406       .  A
C1816      F1821   1.358       .  S
C1817      C1818   1.404       .  A
C1818      F1819   1.359       .  S
F1822      C3687   1.358       .  S
C1823      C1824   1.413       .  A
C1823      C1828   1.398       .  A
C1823      F1830   1.358       .  S
C1824      C1825   1.410       .  A
C1825      C1826   1.396       .  A
C1826      C1827   1.406       .  A
C1827      C1828   1.404       .  A
C1828      F1829   1.358       .  S
C1833      C1834   1.402       .  A
C1833      C1838   1.392       .  A
C1833      F1840   1.357       .  S
C1834      C1835   1.406       .  A
C1835      C1836   1.405       .  A
C1836      C1837   1.407       .  A
C1836      F1841   1.358       .  S
C1837      C1838   1.403       .  A
C1838      F1839   1.356       .  S
C1843      C3716   1.405       .  A
C1843      C1848   1.398       .  A
C1843      F1850   1.357       .  S
C1844      C3715   1.405   1_455  A
C1844      C1845   1.405       .  A
C1845      C1846   1.403       .  A
C1845      F1852   1.358       .  S
C1846      C3719   1.406   1_455  A
C1846      F1851   1.357       .  S
C1847      C3718   1.406       .  A
C1847      C1848   1.402       .  A
C1848      F1849   1.357       .  S
C1853      C1854   1.403       .  A
C1853      F1860   1.357       .  S
C1854      C1855   1.406   1_565  A
C1855      F1862   1.356       .  S
C1856      C1857   1.405       .  A
C1856      F1861   1.357       .  S
C1857      C1858   1.407       .  A
C1858      F1859   1.357       .  S
C1863      C1864   1.404       .  A
C1863      C1868   1.391       .  A
C1863      F1870   1.357       .  S
C1864      C2830   1.469   1_455  S
C1864      C1865   1.406       .  A
C1865      C1866   1.400       .  A
C1865      F3744   1.358       .  S
C1866      C1867   1.406       .  A
C1866      F1871   1.358       .  S
C1867      C1868   1.403       .  A
C1868      F1869   1.357       .  S
F1872      C3737   1.358       .  S
Fe1873     O1889   2.043       .  S
Fe1873     O1879   2.061       .  S
Fe1873     O1886   2.056       .  S
Fe1873     O1878   2.043       .  S
Fe1873     O1884   1.946       .  S
Fe1874     O1877   2.053       .  S
Fe1874     O1881   2.080       .  S
Fe1874     O1885   2.072       .  S
Fe1874     O1890   2.069       .  S
Fe1874     O1884   1.974       .  S
Fe1875     O1893   2.085       .  S
Fe1875     O1880   2.060       .  S
Fe1875     O1887   2.077       .  S
Fe1875     O1876   2.101       .  S
Fe1875     O1884   1.977       .  S
O1876      C1883   1.274       .  A
O1877      C1891   1.268       .  A
O1878      C1883   1.265       .  A
O1879      C1882   1.268       .  A
O1880      C1892   1.271       .  A
O1881      C1894   1.270       .  A
C1882      O1887   1.269       .  A
C1882      C2783   1.471       .  S
C1883      C2793   1.476       .  S
O1885      C1888   1.268       .  A
O1886      C1888   1.268       .  A
C1888      C3706   1.471   1_545  S
O1889      C1894   1.266       .  A
O1890      C1892   1.271       .  A
C1891      O1893   1.272       .  A
C1891      C2753   1.474       .  S
C1892      C2760   1.488       .  S
Fe1895     O1911   2.070       .  S
Fe1895     O1901   2.046       .  S
Fe1895     O1908   2.066       .  S
Fe1895     O1900   2.051       .  S
Fe1895     O1906   1.993       .  S
Fe1896     O1899   2.051       .  S
Fe1896     O1903   2.047       .  S
Fe1896     O1907   2.045       .  S
Fe1896     O1912   2.052       .  S
Fe1896     O1906   1.959       .  S
Fe1897     O1915   2.081       .  S
Fe1897     O1902   2.086       .  S
Fe1897     O1909   2.070       .  S
Fe1897     O1898   2.071       .  S
Fe1897     O1906   1.989       .  S
O1898      C1905   1.270       .  A
O1899      C1913   1.265       .  A
O1900      C1905   1.267       .  A
O1901      C1904   1.266       .  A
O1902      C1914   1.271       .  A
O1903      C1916   1.267       .  A
C1904      O1909   1.271       .  A
C1904      C2700   1.470       .  S
C1905      C2710   1.479       .  S
O1907      C1910   1.266       .  A
O1908      C1910   1.266       .  A
O1911      C1916   1.267       .  A
O1912      C1914   1.267       .  A
C1913      O1915   1.268       .  A
C1913      C2740   1.472       .  S
C1914      C2780   1.472       .  S
C1916      C2730   1.469       .  S
Fe1917     O1933   2.038       .  S
Fe1917     O1923   2.058       .  S
Fe1917     O1930   2.054       .  S
Fe1917     O1922   2.043       .  S
Fe1917     O1928   1.945       .  S
Fe1918     O1921   2.041       .  S
Fe1918     O1925   2.082       .  S
Fe1918     O1929   2.065       .  S
Fe1918     O1934   2.066       .  S
Fe1918     O1928   1.975       .  S
Fe1919     O1937   2.082       .  S
Fe1919     O1924   2.061       .  S
Fe1919     O1931   2.080       .  S
Fe1919     O1920   2.101       .  S
Fe1919     O1928   1.973       .  S
O1920      C1927   1.275       .  A
O1921      C1935   1.267       .  A
O1922      C1927   1.266       .  A
O1923      C1926   1.266       .  A
O1924      C1936   1.270       .  A
O1925      C1938   1.271       .  A
C1926      O1931   1.268       .  A
C1926      C2680   1.472       .  S
C1927      C2690   1.474       .  S
O1929      C1932   1.266       .  A
O1930      C1932   1.267       .  A
O1933      C1938   1.266       .  A
O1934      C1936   1.270       .  A
C1935      O1937   1.273       .  A
C1935      C2660   1.473       .  S
C1936      C2653   1.483       .  S
C1938      C3669   1.472       .  S
Fe1939     O1955   2.083       .  S
Fe1939     O1945   2.045       .  S
Fe1939     O1952   2.064       .  S
Fe1939     O1944   2.067       .  S
Fe1939     O1950   1.974       .  S
Fe1940     O1943   2.061       .  S
Fe1940     O1947   2.044       .  S
Fe1940     O1951   2.051       .  S
Fe1940     O1956   2.042       .  S
Fe1940     O1950   1.947       .  S
Fe1941     O1959   2.074       .  S
Fe1941     O1946   2.113       .  S
Fe1941     O1953   2.092       .  S
Fe1941     O1942   2.067       .  S
Fe1941     O1950   1.972       .  S
O1942      C1949   1.272       .  A
O1943      C1957   1.267       .  A
O1944      C1949   1.271       .  A
O1945      C1948   1.266       .  A
O1946      C1958   1.277       .  A
O1947      C1960   1.268       .  A
C1948      O1953   1.274       .  A
C1948      C2623   1.486       .  S
C1949      C2630   1.482       .  S
O1951      C1954   1.265       .  A
O1952      C1954   1.265       .  A
C1954      C3579   1.465   1_545  S
O1955      C1960   1.272       .  A
O1956      C1958   1.265       .  A
C1957      O1959   1.268       .  A
C1957      C2743   1.469       .  S
C1958      C2683   1.480       .  S
C1960      C2803   1.472       .  S
Fe1961     O1977   2.069       .  S
Fe1961     O1967   2.068       .  S
Fe1961     O1974   2.083       .  S
Fe1961     O1966   2.047       .  S
Fe1961     O1972   1.974       .  S
Fe1962     O1965   2.046       .  S
Fe1962     O1969   2.051       .  S
Fe1962     O1973   2.046       .  S
Fe1962     O1978   2.055       .  S
Fe1962     O1972   1.947       .  S
Fe1963     O1981   2.099       .  S
Fe1963     O1968   2.077       .  S
Fe1963     O1975   2.060       .  S
Fe1963     O1964   2.080       .  S
Fe1963     O1972   1.976       .  S
O1964      C1971   1.273       .  A
O1965      C1979   1.266       .  A
O1966      C1971   1.268       .  A
O1967      C1970   1.271       .  A
O1968      C1980   1.268       .  A
O1969      C1982   1.266       .  A
C1970      O1975   1.269       .  A
C1970      C2600   1.486       .  S
C1971      C2590   1.473       .  S
O1973      C1976   1.267       .  A
O1974      C1976   1.270       .  A
C1976      C2773   1.476       .  S
O1977      C1982   1.267       .  A
O1978      C1980   1.265       .  A
C1979      O1981   1.274       .  A
C1979      C2693   1.474       .  S
C1980      C2610   1.470       .  S
Fe1983     O1999   2.078       .  S
Fe1983     O1989   2.053       .  S
Fe1983     O1996   2.077       .  S
Fe1983     O1988   2.054       .  S
Fe1983     O1994   1.994       .  S
Fe1984     O1987   2.048       .  S
Fe1984     O1991   2.036       .  S
Fe1984     O1995   2.040       .  S
Fe1984     O2000   2.047       .  S
Fe1984     O1994   1.959       .  S
Fe1985     O2003   2.094       .  S
Fe1985     O1990   2.083       .  S
Fe1985     O1997   2.070       .  S
Fe1985     O1986   2.075       .  S
Fe1985     O1994   1.990       .  S
O1986      C1993   1.271       .  A
O1987      C2001   1.264       .  A
O1988      C1993   1.268       .  A
O1989      C1992   1.268       .  A
O1990      C2002   1.269       .  A
O1991      C2004   1.264       .  A
C1992      O1997   1.271       .  A
C1992      C2580   1.481       .  S
C1993      C2570   1.476       .  S
O1995      C1998   1.265       .  A
O1996      C1998   1.268       .  A
C1998      C2673   1.473       .  S
O1999      C2004   1.268       .  A
O2000      C2002   1.264       .  A
C2001      O2003   1.272       .  A
C2001      C2790   1.476       .  S
C2002      C2613   1.470       .  S
C2004      C3656   1.471       .  S
Fe2005     O2021   2.071       .  S
Fe2005     O2011   2.059       .  S
Fe2005     O2018   2.080       .  S
Fe2005     O2010   2.050       .  S
Fe2005     O2016   1.983       .  S
Fe2006     O2009   2.047       .  S
Fe2006     O2013   2.045       .  S
Fe2006     O2017   2.049       .  S
Fe2006     O2022   2.047       .  S
Fe2006     O2016   1.953       .  S
Fe2007     O2961   2.097       .  S
Fe2007     O2948   2.080       .  S
Fe2007     O2019   2.064   1_565  S
Fe2007     O2008   2.077   1_565  S
Fe2007     O2952   1.979       .  S
O2008      C2015   1.272   1_545  A
O2009      C2023   1.266       .  A
O2010      C2951   1.268       .  A
O2011      C2950   1.269       .  A
O2012     Fe2943   2.077       .  S
O2012      C2024   1.267       .  A
O2013      C2026   1.265       .  A
C2014      O2947   1.269       .  A
C2014      O2019   1.270   1_565  A
C2014      C2763   1.475   1_565  S
C2015      O2946   1.268       .  A
C2015      C2633   1.480   1_565  S
O2016     Fe2943   1.983       .  S
O2017      C2020   1.267       .  A
O2018      C2020   1.270       .  A
C2020      C2553   1.475       .  S
O2021      C2026   1.267       .  A
O2022      C2024   1.264       .  A
C2023      O2025   1.272       .  A
C2023      C2543   1.473       .  S
C2024      C2560   1.467       .  S
O2025     Fe2943   2.092       .  S
C2026      C2530   1.468       .  S
Fe2027     O2043   2.044       .  S
Fe2027     O2033   2.054       .  S
Fe2027     O2040   2.047       .  S
Fe2027     O2032   2.047       .  S
Fe2027     O2038   1.957       .  S
Fe2028     O2031   2.053       .  S
Fe2028     O2035   2.074       .  S
Fe2028     O2039   2.072       .  S
Fe2028     O2044   2.056       .  S
Fe2028     O2038   1.989       .  S
Fe2029     O2047   2.078       .  S
Fe2029     O2034   2.063       .  S
Fe2029     O2041   2.072       .  S
Fe2029     O2030   2.096       .  S
Fe2029     O2038   1.986       .  S
O2030      C2037   1.272       .  A
O2031      C2045   1.267       .  A
O2032      C2037   1.265       .  A
O2033      C2036   1.266       .  A
O2034      C2046   1.270       .  A
O2035      C2048   1.269       .  A
C2036      O2041   1.267       .  A
C2036      C2563   1.467       .  S
C2037      C2510   1.477       .  S
O2039      C2042   1.266       .  A
O2040      C2042   1.265       .  A
C2042      C2500   1.470       .  S
O2043      C2048   1.267       .  A
O2044      C2046   1.269       .  A
C2045      O2047   1.271       .  A
C2045      C2493   1.477       .  S
C2046      C2480   1.474       .  S
C2048      C2520   1.469       .  S
Fe2049     O2065   2.070       .  S
Fe2049     O2055   2.076       .  S
Fe2049     O2062   2.087       .  S
Fe2049     O2054   2.049       .  S
Fe2049     O2060   1.968       .  S
Fe2050     O2053   2.042       .  S
Fe2050     O2057   2.049       .  S
Fe2050     O2061   2.040       .  S
Fe2050     O2066   2.067       .  S
Fe2050     O2060   1.942       .  S
Fe2051     O2056   2.080       .  S
Fe2051     O2063   2.060   1_455  S
Fe2051     O2052   2.088   1_455  S
O2052      C2059   1.273       .  A
O2053      C2067   1.265       .  A
O2057      C2070   1.265       .  A
C2058      O2063   1.271       .  A
C2058      C2603   1.484       .  S
C2059      C2750   1.477       .  S
O2061      C2064   1.268       .  A
O2062      C2064   1.273       .  A
C2064      C2460   1.476       .  S
O2065      C2070   1.267       .  A
O2066      C2068   1.267       .  A
C2067      O2069   1.276       .  A
C2067      C2513   1.476       .  S
C2068      C2473   1.474       .  S
C2070      C2550   1.466       .  S
Fe2071     O2087   2.066       .  S
Fe2071     O2077   2.058       .  S
Fe2071     O2084   2.079       .  S
Fe2071     O2076   2.044       .  S
Fe2071     O2082   1.991       .  S
Fe2072     O2075   2.050       .  S
Fe2072     O2079   2.040       .  S
Fe2072     O2083   2.046       .  S
Fe2072     O2088   2.050       .  S
Fe2072     O2082   1.956       .  S
Fe2073     O2091   2.080       .  S
Fe2073     O2078   2.089       .  S
Fe2073     O2085   2.074       .  S
Fe2073     O2074   2.067       .  S
Fe2073     O2082   1.988       .  S
O2074      C2081   1.271       .  A
O2075      C2089   1.267       .  A
O2076      C2081   1.267       .  A
O2077      C2080   1.267       .  A
O2078      C2090   1.270       .  A
O2079      C2092   1.265       .  A
C2080      O2085   1.271       .  A
C2080      C2433   1.480       .  S
C2081      C2420   1.470       .  S
O2083      C2086   1.267       .  A
O2084      C2086   1.269       .  A
C2086      C2503   1.474       .  S
O2087      C2092   1.266       .  A
O2088      C2090   1.264       .  A
C2089      O2091   1.270       .  A
C2089      C2453   1.468       .  S
C2090      C2470   1.476       .  S
C2092      C2440   1.466       .  S
Fe2093     O2109   2.078       .  S
Fe2093     O2099   2.047       .  S
Fe2093     O2106   2.065       .  S
Fe2093     O2098   2.060       .  S
Fe2093     O2104   1.984       .  S
Fe2094     O2097   2.053       .  S
Fe2094     O2101   2.043       .  S
Fe2094     O2105   2.046       .  S
Fe2094     O2110   2.047       .  S
Fe2094     O2104   1.954       .  S
Fe2095     O2113   2.078       .  S
Fe2095     O2100   2.097       .  S
Fe2095     O2107   2.079       .  S
Fe2095     O2096   2.067       .  S
Fe2095     O2104   1.980       .  S
O2096      C2103   1.271       .  A
O2097      C2111   1.265       .  A
O2098      C2103   1.269       .  A
O2099      C2102   1.267       .  A
O2100      C2112   1.273       .  A
O2101      C2114   1.266       .  A
C2102      O2107   1.272       .  A
C2102      C2390   1.477       .  S
C2103      C2400   1.479       .  S
O2105      C2108   1.266       .  A
O2106      C2108   1.265       .  A
C2108      C2443   1.467       .  S
O2109      C2114   1.270       .  A
O2110      C2112   1.266       .  A
C2111      O2113   1.268       .  A
C2111      C2540   1.470       .  S
C2112      C2410   1.476       .  S
C2114      C2523   1.471       .  S
Fe2115     O2131   2.042       .  S
Fe2115     O2121   2.058       .  S
Fe2115     O2128   2.051       .  S
Fe2115     O2120   2.039       .  S
Fe2115     O2126   1.941       .  S
Fe2116     O2119   2.046       .  S
Fe2116     O2123   2.088       .  S
Fe2116     O2127   2.067       .  S
Fe2116     O2132   2.081       .  S
Fe2116     O2126   1.970       .  S
Fe2117     O2135   2.080       .  S
Fe2117     O2122   2.061       .  S
Fe2117     O2129   2.080       .  S
Fe2117     O2118   2.098       .  S
Fe2117     O2126   1.969       .  S
O2118      C2125   1.274       .  A
O2119      C2133   1.267       .  A
O2120      C2125   1.265       .  A
O2121      C2124   1.266       .  A
O2122      C2134   1.270       .  A
O2123      C2136   1.272       .  A
C2124      O2129   1.269       .  A
C2124      C2413   1.471       .  S
C2125      C2450   1.470       .  S
O2127      C2130   1.268       .  A
O2128      C2130   1.267       .  A
C2130      C2463   1.466       .  S
O2131      C2136   1.267       .  A
O2132      C2134   1.273       .  A
C2133      O2135   1.272       .  A
C2133      C2593   1.466       .  S
C2134      C2620   1.484       .  S
C2136      C2533   1.478       .  S
Fe2137     O2153   2.042       .  S
Fe2137     O2143   2.043       .  S
Fe2137     O2150   2.038       .  S
Fe2137     O2142   2.042       .  S
Fe2137     O2148   1.960       .  S
Fe2138     O2141   2.053       .  S
Fe2138     O2145   2.084       .  S
Fe2138     O2149   2.072       .  S
Fe2138     O2154   2.068       .  S
Fe2138     O2148   1.991       .  S
Fe2139     O2157   2.059       .  S
Fe2139     O2144   2.067       .  S
Fe2139     O2151   2.092       .  S
Fe2139     O2140   2.080       .  S
Fe2139     O2148   1.988       .  S
O2140      C2147   1.270       .  A
O2141      C2155   1.268       .  A
O2142      C2147   1.265       .  A
O2143      C2146   1.262       .  A
O2144      C2156   1.270       .  A
O2145      C2158   1.271       .  A
C2146      O2151   1.269       .  A
C2146      C2380   1.475       .  S
C2147      C2360   1.465       .  S
O2149      C2152   1.267       .  A
O2150      C2152   1.263       .  A
C2152      C2350   1.468       .  S
O2153      C2158   1.266       .  A
O2154      C2156   1.270       .  A
C2155      O2157   1.270       .  A
C2155      C2423   1.472       .  S
C2156      C2393   1.485       .  S
C2158      C2370   1.475       .  S
Fe2159     O2175   2.079       .  S
Fe2159     O2165   2.051       .  S
Fe2159     O2172   2.074       .  S
Fe2159     O2164   2.060       .  S
Fe2159     O2170   1.993       .  S
Fe2160     O2163   2.049       .  S
Fe2160     O2167   2.042       .  S
Fe2160     O2171   2.044       .  S
Fe2160     O2176   2.046       .  S
Fe2160     O2170   1.961       .  S
Fe2161     O2166   2.096       .  S
Fe2161     O2173   2.075       .  S
Fe2161     O2162   2.067       .  S
O2162      C2169   1.271       .  A
O2163      C2177   1.264       .  A
O2167      C2180   1.266       .  A
C2168      O2173   1.272       .  A
C2168      C2650   1.480       .  S
C2169      C2713   1.480       .  S
O2171      C2174   1.265       .  A
O2172      C2174   1.268       .  A
C2174      C2323   1.472       .  S
O2175      C2180   1.269       .  A
O2176      C2178   1.265       .  A
C2177      O2179   1.269       .  A
C2177      C2340   1.472       .  S
C2178      C2383   1.475       .  S
C2180      C2330   1.476       .  S
Fe2181     O2197   2.079       .  S
Fe2181     O2187   2.050       .  S
Fe2181     O2194   2.068       .  S
Fe2181     O2186   2.057       .  S
Fe2181     O2192   1.988       .  S
Fe2182     O2185   2.047       .  S
Fe2182     O2189   2.047       .  S
Fe2182     O2193   2.041       .  S
Fe2182     O2198   2.045       .  S
Fe2182     O2192   1.958       .  S
Fe2183     O2201   2.087       .  S
Fe2183     O2188   2.087       .  S
Fe2183     O2195   2.067       .  S
Fe2183     O2184   2.068       .  S
Fe2183     O2192   1.986       .  S
O2184      C2191   1.270       .  A
O2185      C2199   1.264       .  A
O2186      C2191   1.268       .  A
O2187      C2190   1.268       .  A
O2188      C2200   1.270       .  A
O2189      C2202   1.266       .  A
C2190      O2195   1.271       .  A
C2190      C2483   1.477       .  S
C2191      C2403   1.484       .  S
O2193      C2196   1.265       .  A
O2194      C2196   1.266       .  A
C2196      C2303   1.469       .  S
O2197      C2202   1.269       .  A
O2198      C2200   1.265       .  A
C2199      O2201   1.270       .  A
C2199      C2343   1.473       .  S
C2200      C2313   1.470       .  S
C2202      C2373   1.475       .  S
Fe2203     O2219   2.073       .  S
Fe2203     O2209   2.053       .  S
Fe2203     O2216   2.070       .  S
Fe2203     O2208   2.058       .  S
Fe2203     O2214   1.991       .  S
Fe2204     O2207   2.040       .  S
Fe2204     O2211   2.039       .  S
Fe2204     O2215   2.040       .  S
Fe2204     O2220   2.040       .  S
Fe2204     O2214   1.961       .  S
Fe2205     O2223   2.089       .  S
Fe2205     O2210   2.094       .  S
Fe2205     O2217   2.078       .  S
Fe2205     O2206   2.072       .  S
Fe2205     O2214   1.988       .  S
O2206      C2213   1.272       .  A
O2207      C2221   1.263       .  A
O2208      C2213   1.269       .  A
O2209      C2212   1.266       .  A
O2210      C2222   1.271       .  A
O2211      C2224   1.266       .  A
C2212      O2217   1.273       .  A
C2212      C2430   1.486       .  S
C2213      C2490   1.481       .  S
O2215      C2218   1.264       .  A
O2216      C2218   1.267       .  A
C2218      C2353   1.469       .  S
O2219      C2224   1.268       .  A
O2220      C2222   1.263       .  A
C2221      O2223   1.271       .  A
C2221      C2280   1.470       .  S
C2222      C2290   1.472       .  S
C2224      C2300   1.472       .  S
Fe2225     O2241   2.066       .  S
Fe2225     O2231   2.073       .  S
Fe2225     O2238   2.081       .  S
Fe2225     O2230   2.047       .  S
Fe2225     O2236   1.965       .  S
Fe2226     O2229   2.040       .  S
Fe2226     O2233   2.060       .  S
Fe2226     O2237   2.043       .  S
Fe2226     O2242   2.067       .  S
Fe2226     O2236   1.938       .  S
Fe2227     O2245   2.094       .  S
Fe2227     O2232   2.074       .  S
Fe2227     O2239   2.053       .  S
Fe2227     O2228   2.078       .  S
Fe2227     O3172   1.969       .  S
O2228      C2235   1.271       .  A
O2229      C2243   1.265       .  A
O2230      C3171   1.267   1_545  A
O2231      C3170   1.272   1_545  A
O2232      C3180   1.268       .  A
O2233      C2246   1.269       .  A
C2234      O3167   1.272       .  A
C2234      O2239   1.269       .  A
C2234      C2583   1.483       .  S
C2235      O3166   1.266       .  A
C2235      C2663   1.463       .  S
O2236     Fe3163   1.966       .  S
O2237      C2240   1.267       .  A
O2238      C2240   1.270       .  A
C2240      C2270   1.470       .  S
O2241      C2246   1.268       .  A
O2242      C2244   1.268       .  A
C2243      O3181   1.272       .  A
C2243      C2363   1.468       .  S
C2244      O3168   1.269       .  A
C2244      C2293   1.472       .  S
O2245      C3179   1.273       .  A
C2246      C2320   1.468       .  S
Fe2247     O2263   2.050       .  S
Fe2247     O2253   2.041       .  S
Fe2247     O2260   2.040       .  S
Fe2247     O2252   2.053       .  S
Fe2247     O2258   1.955       .  S
Fe2248     O2251   2.062       .  S
Fe2248     O2255   2.071       .  S
Fe2248     O2259   2.076       .  S
Fe2248     O2264   2.055       .  S
Fe2248     O2258   1.986       .  S
Fe2249     O2267   2.062       .  S
Fe2249     O2254   2.067       .  S
Fe2249     O2261   2.092       .  S
Fe2249     O2250   2.079       .  S
Fe2249     O2258   1.982       .  S
O2250      C2257   1.267       .  A
O2251      C2265   1.268       .  A
O2252      C2257   1.265       .  A
O2253      C2256   1.265       .  A
O2254      C2266   1.272       .  A
O2255      C2268   1.268       .  A
C2256      O2261   1.272       .  A
C2256      C2310   1.470       .  S
C2257      C2283   1.471       .  S
O2259      C2262   1.268       .  A
O2260      C2262   1.265       .  A
C2262      C2273   1.468       .  S
O2263      C2268   1.267       .  A
O2264      C2266   1.269       .  A
C2265      O2267   1.269       .  A
C2265      C2573   1.486       .  S
C2266      C2703   1.478       .  S
C2268      C2333   1.471       .  S
C2269      C2270   1.407       .  A
C2269      C2274   1.400       .  A
C2269      F2276   1.358       .  S
C2270      C2271   1.404       .  A
C2271      C2272   1.392       .  A
C2271      F2278   1.357       .  S
C2272      C2273   1.403       .  A
C2272      F2277   1.357       .  S
C2273      C2274   1.406       .  A
C2274      F2275   1.358       .  S
C2279      C2280   1.403       .  A
C2279      C2284   1.400       .  A
C2279      F2286   1.358       .  S
C2280      C2281   1.406       .  A
C2281      C2282   1.401       .  A
C2281      F2288   1.358       .  S
C2282      C2283   1.403       .  A
C2282      F2287   1.358       .  S
C2283      C2284   1.405       .  A
C2284      F2285   1.357       .  S
C2289      C2290   1.404       .  A
C2289      C2294   1.403       .  A
C2289      F2296   1.358       .  S
C2290      C2291   1.406       .  A
C2291      C2292   1.400       .  A
C2291      F2298   1.358       .  S
C2292      C2293   1.402       .  A
C2292      F2297   1.358       .  S
C2293      C2294   1.406       .  A
C2294      F2295   1.357       .  S
C2299      C2300   1.405       .  A
C2299      C2304   1.389       .  A
C2299      F2306   1.358       .  S
C2300      C2301   1.408       .  A
C2301      C2302   1.402       .  A
C2301      F2308   1.357   1_556  S
C2302      C2303   1.405       .  A
C2302      F2307   1.357   1_556  S
C2303      C2304   1.404       .  A
C2304      F2305   1.358       .  S
C2309      C2310   1.406       .  A
C2309      C2314   1.399       .  A
C2309      F2316   1.357       .  S
C2310      C2311   1.403       .  A
C2311      C2312   1.401       .  A
C2311      F2318   1.358       .  S
C2312      C2313   1.406       .  A
C2312      F2317   1.357       .  S
C2313      C2314   1.402       .  A
C2314      F2315   1.358       .  S
C2319      C2320   1.406       .  A
C2319      C2324   1.403       .  A
C2319      F2326   1.358       .  S
C2320      C2321   1.402       .  A
C2321      C2322   1.392       .  A
C2321      F2328   1.358       .  S
C2322      C2323   1.405       .  A
C2322      F2327   1.358       .  S
C2323      C2324   1.407       .  A
C2324      F2325   1.358       .  S
C2329      C2330   1.408       .  A
C2329      C2334   1.404       .  A
C2329      F2336   1.358       .  S
C2330      C2331   1.406       .  A
C2331      C2332   1.391       .  A
C2331      F2338   1.358       .  S
C2332      C2333   1.403       .  A
C2332      F2337   1.358       .  S
C2333      C2334   1.406       .  A
C2334      F2335   1.358       .  S
C2339      C2340   1.403       .  A
C2339      C2344   1.401       .  A
C2339      F2346   1.358       .  S
C2340      C2341   1.406       .  A
C2341      C2342   1.402       .  A
C2341      F2348   1.357       .  S
C2342      C2343   1.404       .  A
C2342      F2347   1.358       .  S
C2343      C2344   1.406       .  A
C2344      F2345   1.357       .  S
C2349      C2350   1.404       .  A
C2349      C2354   1.391       .  A
C2349      F2356   1.357       .  S
C2350      C2351   1.405       .  A
C2351      C2352   1.402       .  A
C2351      F2358   1.358   1_556  S
C2352      C2353   1.406       .  A
C2352      F2357   1.358   1_556  S
C2353      C2354   1.404       .  A
C2354      F2355   1.358       .  S
C2359      C2360   1.406       .  A
C2359      C2364   1.399       .  A
C2359      F2366   1.357       .  S
C2360      C2361   1.401       .  A
C2361      C2362   1.398       .  A
C2361      F2368   1.358       .  S
C2362      C2363   1.406       .  A
C2362      F2367   1.357       .  S
C2363      C2364   1.403       .  A
C2364      F3301   1.358       .  S
F2365      C3300   1.358       .  S
C2369      C2370   1.405       .  A
C2369      C2374   1.393       .  A
C2369      F2376   1.358       .  S
C2370      C2371   1.407       .  A
C2371      C2372   1.403       .  A
C2371      F2378   1.358   1_556  S
C2372      C2373   1.407       .  A
C2372      F2377   1.358   1_556  S
C2373      C2374   1.405       .  A
C2374      F2375   1.357       .  S
C2379      C2380   1.406       .  A
C2379      C2384   1.402       .  A
C2379      F2386   1.357       .  S
C2380      C2381   1.404       .  A
C2381      C2382   1.403       .  A
C2381      F2388   1.358       .  S
C2382      C2383   1.407       .  A
C2382      F2387   1.357       .  S
C2383      C2384   1.403       .  A
C2384      F2385   1.358       .  S
C2389      C2390   1.407   1_556  A
C2389      C3330   1.397       .  A
C2389      F2396   1.358       .  S
C2390      C2391   1.406       .  A
C2391      C3328   1.400       .  A
C2391      F2398   1.358       .  S
C2392      C3327   1.401   1_545  A
C2392      C2393   1.409   1_554  A
C2392      F2397   1.358       .  S
C2393      C2394   1.407   1_545  A
C2394      C3325   1.399       .  A
C2394      F2395   1.358   1_565  S
C2399      C2400   1.408   1_556  A
C2399      C2404   1.398       .  A
C2399      F2406   1.358       .  S
C2400      C2401   1.405       .  A
C2401      C2402   1.397       .  A
C2401      F2408   1.358       .  S
C2402      C2403   1.411   1_554  A
C2402      F2407   1.358       .  S
C2403      C2404   1.408       .  A
C2404      F2405   1.358       .  S
C2409      C2410   1.406       .  A
C2409      C2414   1.399       .  A
C2409      F2416   1.356       .  S
C2410      C2411   1.405       .  A
C2411      C2412   1.404       .  A
C2411      F2418   1.357       .  S
C2412      C2413   1.406       .  A
C2412      F2417   1.357       .  S
C2413      C2414   1.402       .  A
C2414      F2415   1.357       .  S
C2419      C2420   1.406   1_556  A
C2419      F2426   1.358       .  S
C2420      C2421   1.405       .  A
C2421      F2428   1.358       .  S
C2422      C2423   1.408   1_554  A
C2422      F2427   1.358       .  S
C2423      C2424   1.405       .  A
C2424      F2425   1.358       .  S
C2429      C2430   1.407       .  A
C2429      C2434   1.399       .  A
C2429      F2436   1.358       .  S
C2430      C2431   1.413   1_556  A
C2431      C2432   1.400       .  A
C2431      F2438   1.358       .  S
C2432      C2433   1.405       .  A
C2432      F2437   1.358       .  S
C2433      C2434   1.408   1_554  A
C2434      F2435   1.358       .  S
C2439      C2440   1.406       .  A
C2439      C2444   1.404       .  A
C2439      F2446   1.358   1_554  S
C2440      C2441   1.402       .  A
C2441      C2442   1.387       .  A
C2441      F2448   1.357       .  S
C2442      C2443   1.402       .  A
C2442      F2447   1.356       .  S
C2443      C2444   1.406       .  A
C2444      F2445   1.358   1_554  S
C2449      C2450   1.406       .  A
C2449      C2454   1.398       .  A
C2449      F2456   1.357       .  S
C2450      C2451   1.404       .  A
C2451      C2452   1.400       .  A
C2451      F2458   1.357       .  S
C2452      C2453   1.405       .  A
C2452      F2457   1.357       .  S
C2453      C2454   1.402       .  A
C2454      F2455   1.358       .  S
C2459      C2460   1.406       .  A
C2459      C2464   1.390       .  A
C2459      F2466   1.358       .  S
C2460      C2461   1.409       .  A
C2461      C2462   1.403       .  A
C2461      F2468   1.358       .  S
C2462      C2463   1.404       .  A
C2462      F2467   1.358       .  S
C2463      C2464   1.402       .  A
C2464      F2465   1.357       .  S
C2469      C2470   1.404       .  A
C2469      C2474   1.399       .  A
C2469      F2476   1.356       .  S
C2470      C2471   1.406       .  A
C2471      C2472   1.405       .  A
C2471      F2478   1.357       .  S
C2472      C2473   1.406       .  A
C2472      F2477   1.357       .  S
C2473      C2474   1.402       .  A
C2479      C2480   1.405       .  A
C2479      F2486   1.358       .  S
C2480      C2481   1.407   1_554  A
C2481      C2482   1.396       .  A
C2481      F2488   1.358       .  S
C2482      F2487   1.358       .  S
C2483      C2484   1.409   1_556  A
C2484      F2485   1.358       .  S
C2489      C2490   1.409   1_554  A
C2489      C3430   1.398   1_545  A
C2489      F2496   1.358       .  S
C2490      C2491   1.407   1_545  A
C2491      C3428   1.399       .  A
C2491      F2498   1.358   1_565  S
C2492      C3427   1.398       .  A
C2492      C2493   1.406   1_556  A
C2492      F2497   1.358       .  S
C2493      C2494   1.404       .  A
C2494      C3425   1.400       .  A
C2494      F2495   1.358       .  S
C2499      C2500   1.406       .  A
C2499      C2504   1.405       .  A
C2499      F2506   1.358   1_554  S
C2500      C2501   1.401       .  A
C2501      C2502   1.391       .  A
C2501      F2508   1.356       .  S
C2502      C2503   1.403       .  A
C2502      F2507   1.356       .  S
C2503      C2504   1.408       .  A
C2504      F2505   1.358   1_554  S
C2509      C2510   1.404       .  A
C2509      C2514   1.403       .  A
C2509      F2516   1.358       .  S
C2510      C2511   1.406       .  A
C2511      C2512   1.400       .  A
C2511      F2518   1.356       .  S
C2512      C2513   1.403       .  A
C2513      C2514   1.408       .  A
C2514      F2515   1.357       .  S
C2519      C2520   1.406       .  A
C2519      C2524   1.400       .  A
C2519      F2526   1.358   1_554  S
C2520      C2521   1.404       .  A
C2521      C2522   1.392       .  A
C2521      F2528   1.357       .  S
C2522      C2523   1.405       .  A
C2522      F2527   1.357       .  S
C2523      C2524   1.406       .  A
C2524      F2525   1.358   1_554  S
C2529      C2530   1.404       .  A
C2529      C2534   1.403       .  A
C2529      F2536   1.358       .  S
C2530      C2531   1.402       .  A
C2531      C2532   1.391       .  A
C2531      F2538   1.355       .  S
C2532      C2533   1.406       .  A
C2532      F2537   1.358       .  S
C2533      C2534   1.410       .  A
C2534      F2535   1.358       .  S
C2539      C2540   1.406       .  A
C2539      C2544   1.402       .  A
C2539      F2546   1.357       .  S
C2540      C2541   1.402       .  A
C2541      C2542   1.399       .  A
C2541      F2548   1.358       .  S
C2542      C2543   1.405       .  A
C2542      F2547   1.356       .  S
C2543      C2544   1.403       .  A
C2544      F2545   1.358       .  S
C2549      C2550   1.404       .  A
C2549      C2554   1.402       .  A
C2549      F2556   1.358       .  S
C2550      C2551   1.403       .  A
C2551      C2552   1.394       .  A
C2551      F2558   1.358       .  S
C2552      C2553   1.405       .  A
C2552      F2557   1.357       .  S
C2553      C2554   1.408       .  A
C2554      F2555   1.358       .  S
C2559      C2560   1.405       .  A
C2559      C2564   1.399       .  A
C2559      F2566   1.357       .  S
C2560      C2561   1.403       .  A
C2561      C2562   1.399       .  A
C2561      F2568   1.358       .  S
C2562      C2563   1.404       .  A
C2562      F2567   1.357       .  S
C2563      C2564   1.402       .  A
C2564      F2565   1.358       .  S
C2569      C2570   1.405       .  A
C2569      C2574   1.396       .  A
C2569      F2576   1.358       .  S
C2570      C2571   1.404       .  A
C2571      C2572   1.400       .  A
C2571      F2578   1.358       .  S
C2572      C2573   1.413       .  A
C2572      F2577   1.358       .  S
C2573      C2574   1.409       .  A
C2574      F2575   1.358       .  S
C2579      C2580   1.409       .  A
C2579      C2584   1.396       .  A
C2579      F2586   1.358       .  S
C2580      C2581   1.407       .  A
C2581      C2582   1.398       .  A
C2581      F2588   1.358       .  S
C2582      C2583   1.410       .  A
C2582      F2587   1.358       .  S
C2583      C2584   1.409       .  A
C2584      F2585   1.358       .  S
C2589      C2590   1.407       .  A
C2589      C2594   1.399       .  A
C2589      F2596   1.358       .  S
C2590      C2591   1.407       .  A
C2591      C2592   1.394       .  A
C2591      F2598   1.359       .  S
C2592      C2593   1.403       .  A
C2592      F2597   1.359       .  S
C2593      C2594   1.403       .  A
C2594      F2595   1.358       .  S
C2599      C2600   1.409       .  A
C2599      C2604   1.398       .  A
C2599      F2606   1.358       .  S
C2600      C2601   1.410       .  A
C2601      C2602   1.397       .  A
C2601      F2608   1.358       .  S
C2602      C2603   1.408       .  A
C2602      F2607   1.358       .  S
C2603      C2604   1.409       .  A
C2604      F2605   1.358       .  S
C2609      C2610   1.405       .  A
C2609      C2614   1.401       .  A
C2609      F2616   1.357       .  S
C2610      C2611   1.403       .  A
C2611      C2612   1.400       .  A
C2611      F2618   1.357       .  S
C2612      C2613   1.405       .  A
C2612      F2617   1.357       .  S
C2613      C2614   1.403       .  A
C2614      F2615   1.358       .  S
C2619      C2620   1.410       .  A
C2619      C2624   1.403       .  A
C2619      F2626   1.358       .  S
C2620      C2621   1.407       .  A
C2621      C2622   1.397       .  A
C2621      F2628   1.358       .  S
C2622      C2623   1.410       .  A
C2622      F2627   1.358       .  S
C2623      C2624   1.408       .  A
C2624      F2625   1.358       .  S
C2629      C2630   1.410       .  A
C2629      C2634   1.398       .  A
C2629      F2636   1.358       .  S
C2630      C2631   1.407       .  A
C2631      C2632   1.398       .  A
C2631      F2638   1.358       .  S
C2632      C2633   1.409       .  A
C2632      F2637   1.358       .  S
C2633      C2634   1.406       .  A
C2634      F2635   1.358       .  S
C2639      C2640   1.402       .  A
C2639      C2644   1.391       .  A
C2639      F2646   1.356       .  S
C2640      C2641   1.405       .  A
C2641      C2642   1.404       .  A
C2642      C2643   1.407       .  A
C2642      F2647   1.358       .  S
C2643      C2890   1.470       .  S
C2643      C2644   1.403       .  A
C2644      F2645   1.358       .  S
C2649      C2650   1.409       .  A
C2649      C2654   1.397       .  A
C2649      F2656   1.358       .  S
C2650      C2651   1.406       .  A
C2651      C2652   1.398       .  A
C2651      F2658   1.358       .  S
C2652      C2653   1.410       .  A
C2652      F2657   1.358       .  S
C2653      C2654   1.408       .  A
C2654      F2655   1.358       .  S
C2659      C2660   1.407       .  A
C2659      C2664   1.400       .  A
C2659      F2666   1.358       .  S
C2660      C2661   1.408       .  A
C2661      C2662   1.392       .  A
C2661      F2668   1.359       .  S
C2662      C2663   1.401       .  A
C2662      F3603   1.359       .  S
C2663      C2664   1.403       .  A
C2664      F2665   1.358       .  S
F2667      C3598   1.359   1_545  S
C2669      C2670   1.405       .  A
C2669      C2674   1.405       .  A
C2670      C2671   1.402       .  A
C2671      C2672   1.389       .  A
C2671      F2678   1.357       .  S
C2672      C2673   1.404       .  A
C2672      F2677   1.358       .  S
C2673      C2674   1.408       .  A
C2674      F2675   1.358       .  S
C2679      C3616   1.406   1_545  A
C2679      C2684   1.404       .  A
C2679      F2686   1.357       .  S
C2680      C3615   1.406       .  A
C2680      C2681   1.403       .  A
C2681      C2682   1.400       .  A
C2681      F2688   1.357       .  S
C2682      C3619   1.406       .  A
C2682      F2687   1.357       .  S
C2683      C3618   1.408   1_545  A
C2683      C2684   1.406       .  A
C2684      F2685   1.357       .  S
C2689      C2690   1.403       .  A
C2689      C2694   1.401       .  A
C2689      F2696   1.358       .  S
C2691      C2692   1.400       .  A
C2691      F2698   1.357       .  S
C2692      C2693   1.403       .  A
C2692      F2697   1.358       .  S
C2694      F2695   1.356       .  S
C2699      C2700   1.404       .  A
C2699      C2704   1.398       .  A
C2699      F2706   1.358       .  S
C2700      C2701   1.405       .  A
C2701      C2702   1.395       .  A
C2701      F2708   1.358       .  S
C2702      C2703   1.408       .  A
C2702      F2707   1.358       .  S
C2703      C2704   1.410       .  A
C2704      F2705   1.358       .  S
C2709      C2710   1.409       .  A
C2709      C2714   1.397       .  A
C2709      F2716   1.358       .  S
C2710      C2711   1.406       .  A
C2711      C2712   1.399       .  A
C2711      F2718   1.358       .  S
C2712      C2713   1.409       .  A
C2712      F2717   1.358       .  S
C2713      C2714   1.406       .  A
C2714      F2715   1.358       .  S
C2719      C2720   1.406       .  A
C2719      C2724   1.403       .  A
C2719      F3662   1.358       .  S
C2720      C2940   1.467   1_545  S
C2720      C2721   1.403       .  A
C2721      C2722   1.389       .  A
C2721      F2728   1.357       .  S
C2722      C2723   1.402       .  A
C2722      F2727   1.357       .  S
C2723      C2724   1.407       .  A
F2726      C3655   1.358       .  S
C2729      C2730   1.406       .  A
C2729      C2734   1.402       .  A
C2729      F2736   1.358       .  S
C2730      C2731   1.402       .  A
C2731      C2732   1.390       .  A
C2731      F2738   1.355       .  S
C2732      C2733   1.403       .  A
C2732      F2737   1.358       .  S
C2733      C2874   1.470   1_545  S
C2733      C2734   1.407       .  A
C2734      F3671   1.358       .  S
F2735      C3670   1.358       .  S
C2739      C2740   1.404       .  A
C2739      C2744   1.402       .  A
C2739      F2746   1.358       .  S
C2740      C2741   1.404       .  A
C2741      C2742   1.399       .  A
C2741      F2748   1.355       .  S
C2742      C2743   1.402       .  A
C2742      F2747   1.357       .  S
C2743      C2744   1.405       .  A
C2744      F2745   1.357       .  S
C2749      C2750   1.407   1_455  A
C2749      C2754   1.396   1_455  A
C2749      F2756   1.358       .  S
C2750      C2751   1.407       .  A
C2751      C2752   1.403       .  A
C2752      C2753   1.406       .  A
C2752      F2757   1.358       .  S
C2753      C2754   1.404       .  A
C2754      F2755   1.358   1_655  S
C2759      C2760   1.413       .  A
C2759      C2764   1.397       .  A
C2759      F2766   1.358       .  S
C2760      C2761   1.411       .  A
C2761      C2762   1.396       .  A
C2761      F3704   1.358       .  S
C2762      C2763   1.406       .  A
C2762      F3703   1.358       .  S
C2763      C2764   1.404       .  A
C2764      F2765   1.358       .  S
F2767      C3698   1.358       .  S
F2768      C3697   1.358       .  S
C2769      C2770   1.402       .  A
C2769      C2774   1.392       .  A
C2769      F2776   1.357       .  S
C2770      C2824   1.467       .  S
C2770      C2771   1.405       .  A
C2771      C2772   1.403       .  A
C2771      F3714   1.358       .  S
C2772      C2773   1.408       .  A
C2772      F2777   1.358       .  S
C2773      C2774   1.405       .  A
C2774      F2775   1.357       .  S
F2778      C3707   1.358       .  S
C2779      C2784   1.401       .  A
C2779      F2786   1.357       .  S
C2780      C2781   1.404       .  A
C2781      C2782   1.401       .  A
C2781      F2788   1.358       .  S
C2782      F2787   1.357       .  S
C2783      C2784   1.403       .  A
C2784      F2785   1.357       .  S
C2789      C2790   1.403       .  A
C2789      C3730   1.401       .  A
C2789      F2796   1.357       .  S
C2790      C2791   1.407       .  A
C2791      C3728   1.404       .  A
C2791      F2798   1.357       .  S
C2792      C3727   1.402       .  A
C2792      C2793   1.405       .  A
C2792      F2797   1.357       .  S
C2793      C2794   1.406   1_545  A
C2794      C3725   1.400       .  A
C2794      F2795   1.357       .  S
C2799      C2800   1.404       .  A
C2799      C2804   1.392       .  A
C2799      F2806   1.357       .  S
C2800      C2801   1.407       .  A
C2801      C2802   1.401       .  A
C2802      C2803   1.407       .  A
C2802      F2807   1.358       .  S
C2803      C2804   1.404       .  A
C2804      F2805   1.357       .  S
Fe2809     O2825   2.038       .  S
Fe2809     O2815   2.059       .  S
Fe2809     O2822   2.050       .  S
Fe2809     O2814   2.044       .  S
Fe2809     O2820   1.951       .  S
Fe2810     O2813   2.051       .  S
Fe2810     O2817   2.076       .  S
Fe2810     O2821   2.071       .  S
Fe2810     O2826   2.066       .  S
Fe2810     O2820   1.981       .  S
Fe2811     O2829   2.081       .  S
Fe2811     O2816   2.060       .  S
Fe2811     O2823   2.078       .  S
Fe2811     O2812   2.104       .  S
Fe2811     O2820   1.980       .  S
O2812      C2819   1.274       .  A
O2813      C2827   1.267       .  A
O2814      C2819   1.264       .  A
O2815      C2818   1.267       .  A
O2816      C2828   1.271       .  A
O2817      C2830   1.269       .  A
C2818      O2823   1.269       .  A
C2818      C3719   1.471       .  S
C2819      C3729   1.478       .  S
O2821      C2824   1.268       .  A
O2822      C2824   1.267       .  A
O2825      C2830   1.265       .  A
O2826      C2828   1.271       .  A
C2827      O2829   1.271       .  A
C2827      C3689   1.472       .  S
C2828      C3696   1.486       .  S
Fe2831     O2847   2.071       .  S
Fe2831     O2837   2.044       .  S
Fe2831     O2844   2.065       .  S
Fe2831     O2836   2.054       .  S
Fe2831     O2842   1.985       .  S
Fe2832     O2835   2.057       .  S
Fe2832     O2839   2.044       .  S
Fe2832     O2843   2.055       .  S
Fe2832     O2848   2.045       .  S
Fe2832     O2842   1.954       .  S
Fe2833     O2851   2.071       .  S
Fe2833     O2838   2.094       .  S
Fe2833     O2845   2.071       .  S
Fe2833     O2834   2.058       .  S
Fe2833     O2842   1.985       .  S
O2834      C2841   1.269       .  A
O2835      C2849   1.266       .  A
O2836      C2841   1.269       .  A
O2837      C2840   1.266       .  A
O2838      C2850   1.272       .  A
O2839      C2852   1.267       .  A
C2840      O2845   1.271       .  A
C2840      C3636   1.474       .  S
C2841      C3646   1.475       .  S
O2843      C2846   1.267       .  A
O2844      C2846   1.265       .  A
O2847      C2852   1.268       .  A
O2848      C2850   1.266       .  A
C2849      O2851   1.266       .  A
C2849      C3676   1.467       .  S
C2850      C3716   1.474       .  S
C2852      C3666   1.469       .  S
Fe2853     O2869   2.040       .  S
Fe2853     O2859   2.058       .  S
Fe2853     O2866   2.049       .  S
Fe2853     O2858   2.046       .  S
Fe2853     O2864   1.954       .  S
Fe2854     O2857   2.045       .  S
Fe2854     O2861   2.074       .  S
Fe2854     O2865   2.067       .  S
Fe2854     O2870   2.057       .  S
Fe2854     O2864   1.988       .  S
Fe2855     O2873   2.075       .  S
Fe2855     O2860   2.065       .  S
Fe2855     O2867   2.085       .  S
Fe2855     O2856   2.091       .  S
Fe2855     O2864   1.985       .  S
O2856      C2863   1.272       .  A
O2857      C2871   1.267       .  A
O2858      C2863   1.265       .  A
O2859      C2862   1.266       .  A
O2860      C2872   1.270       .  A
O2861      C2874   1.268       .  A
C2862      O2867   1.270       .  A
C2862      C3616   1.476       .  S
C2863      C3626   1.472       .  S
O2865      C2868   1.266       .  A
O2866      C2868   1.266       .  A
O2869      C2874   1.266       .  A
O2870      C2872   1.268       .  A
C2871      O2873   1.272       .  A
C2871      C3596   1.476       .  S
C2872      C3589   1.482       .  S
Fe2875     O2891   2.066       .  S
Fe2875     O2881   2.048       .  S
Fe2875     O2888   2.068       .  S
Fe2875     O2880   2.048       .  S
Fe2875     O2886   1.989       .  S
Fe2876     O2879   2.047       .  S
Fe2876     O2883   2.045       .  S
Fe2876     O2887   2.048       .  S
Fe2876     O2892   2.044       .  S
Fe2876     O2886   1.958       .  S
Fe2877     O2895   2.078       .  S
Fe2877     O2882   2.095       .  S
Fe2877     O2889   2.079       .  S
Fe2877     O2878   2.068       .  S
Fe2877     O2886   1.990       .  S
O2878      C2885   1.270       .  A
O2879      C2893   1.264       .  A
O2880      C2885   1.266       .  A
O2881      C2884   1.267       .  A
O2882      C2894   1.273       .  A
O2883      C2896   1.266       .  A
C2884      O2889   1.272       .  A
C2884      C3559   1.478       .  S
C2885      C3566   1.476       .  S
O2887      C2890   1.266       .  A
O2888      C2890   1.267       .  A
O2891      C2896   1.267       .  A
O2892      C2894   1.265       .  A
C2893      O2895   1.268       .  A
C2893      C3679   1.468       .  S
C2894      C3619   1.474       .  S
C2896      C3739   1.467       .  S
Fe2897     O2913   2.071       .  S
Fe2897     O2903   2.050       .  S
Fe2897     O2910   2.073       .  S
Fe2897     O2902   2.050       .  S
Fe2897     O2908   1.991       .  S
Fe2898     O2901   2.055       .  S
Fe2898     O2905   2.050       .  S
Fe2898     O2909   2.052       .  S
Fe2898     O2914   2.053       .  S
Fe2898     O2908   1.958       .  S
Fe2899     O2917   2.079       .  S
Fe2899     O2904   2.087       .  S
Fe2899     O2911   2.071       .  S
Fe2899     O2900   2.065       .  S
Fe2899     O2908   1.989       .  S
O2900      C2907   1.270       .  A
O2901      C2915   1.266       .  A
O2902      C2907   1.267       .  A
O2903      C2906   1.267       .  A
O2904      C2916   1.271       .  A
O2905      C2918   1.267       .  A
C2906      O2911   1.271       .  A
C2906      C3536   1.475       .  S
C2907      C3526   1.475       .  S
O2909      C2912   1.267       .  A
O2910      C2912   1.267       .  A
C2912      C3709   1.472       .  S
O2913      C2918   1.268       .  A
O2914      C2916   1.267       .  A
C2915      O2917   1.269       .  A
C2915      C3629   1.472       .  S
C2916      C3546   1.475       .  S
Fe2919     O2935   2.067       .  S
Fe2919     O2925   2.046       .  S
Fe2919     O2932   2.073       .  S
Fe2919     O2924   2.043       .  S
Fe2919     O2930   1.993       .  S
Fe2920     O2923   2.050       .  S
Fe2920     O2927   2.041       .  S
Fe2920     O2931   2.043       .  S
Fe2920     O2936   2.047       .  S
Fe2920     O2930   1.958       .  S
Fe2921     O2939   2.089       .  S
Fe2921     O2926   2.086       .  S
Fe2921     O2933   2.074       .  S
Fe2921     O2922   2.070       .  S
Fe2921     O2930   1.989       .  S
O2922      C2929   1.270       .  A
O2923      C2937   1.265       .  A
O2924      C2929   1.266       .  A
O2925      C2928   1.266       .  A
O2926      C2938   1.270       .  A
O2927      C2940   1.265       .  A
C2928      O2933   1.272       .  A
C2928      C3516   1.484       .  S
C2929      C3506   1.470       .  S
O2931      C2934   1.265       .  A
O2932      C2934   1.267       .  A
C2934      C3609   1.471       .  S
O2935      C2940   1.266       .  A
O2936      C2938   1.265       .  A
C2937      O2939   1.271       .  A
C2937      C3726   1.474       .  S
C2938      C3549   1.471       .  S
Fe2941     O2957   2.072       .  S
Fe2941     O2947   2.057       .  S
Fe2941     O2954   2.075       .  S
Fe2941     O2946   2.051       .  S
Fe2941     O2952   1.984       .  S
Fe2942     O2945   2.048       .  S
Fe2942     O2949   2.044       .  S
Fe2942     O2953   2.043       .  S
Fe2942     O2958   2.051       .  S
Fe2942     O2952   1.955       .  S
Fe2943     O2955   2.062       .  S
Fe2943     O2944   2.071       .  S
O2944      C2951   1.272       .  A
O2945      C2959   1.266       .  A
O2948      C2960   1.268       .  A
O2949      C2962   1.265       .  A
C2950      O2955   1.269       .  A
C2950      C3699   1.475       .  S
C2951      C3569   1.473       .  S
O2953      C2956   1.267       .  A
O2954      C2956   1.269       .  A
C2956      C3489   1.471       .  S
O2957      C2962   1.267       .  A
O2958      C2960   1.264       .  A
C2959      O2961   1.273       .  A
C2959      C3479   1.476       .  S
C2960      C3496   1.469       .  S
C2962      C3466   1.469       .  S
Fe2963     O2979   2.044       .  S
Fe2963     O2969   2.050       .  S
Fe2963     O2976   2.037       .  S
Fe2963     O2968   2.050       .  S
Fe2963     O2974   1.957       .  S
Fe2964     O2967   2.059       .  S
Fe2964     O2971   2.073       .  S
Fe2964     O2975   2.078       .  S
Fe2964     O2980   2.054       .  S
Fe2964     O2974   1.994       .  S
Fe2965     O2983   2.071       .  S
Fe2965     O2970   2.058       .  S
Fe2965     O2977   2.077       .  S
Fe2965     O2966   2.093       .  S
Fe2965     O2974   1.985       .  S
O2966      C2973   1.272       .  A
O2967      C2981   1.268       .  A
O2968      C2973   1.265       .  A
O2969      C2972   1.265       .  A
O2970      C2982   1.269       .  A
O2971      C2984   1.269       .  A
C2972      O2977   1.268       .  A
C2972      C3499   1.469       .  S
C2973      C3446   1.477       .  S
O2975      C2978   1.267       .  A
O2976      C2978   1.264       .  A
C2978      C3436   1.471       .  S
O2979      C2984   1.267       .  A
O2980      C2982   1.268       .  A
C2981      O2983   1.271       .  A
C2981      C3429   1.479       .  S
C2982      C3416   1.472       .  S
C2984      C3456   1.472       .  S
Fe2985     O3001   2.057       .  S
Fe2985     O2991   2.071       .  S
Fe2985     O2998   2.083       .  S
Fe2985     O2990   2.041       .  S
Fe2985     O2996   1.963       .  S
Fe2986     O2989   2.040       .  S
Fe2986     O2993   2.056       .  S
Fe2986     O2997   2.043       .  S
Fe2986     O3002   2.068       .  S
Fe2986     O2996   1.937       .  S
Fe2987     O2992   2.073       .  S
Fe2987     O2999   2.057   1_455  S
Fe2987     O2988   2.094   1_455  S
O2988      C2995   1.275       .  A
O2989      C3003   1.264       .  A
O2993      C3006   1.268       .  A
C2994      O2999   1.271       .  A
C2994      C3539   1.484       .  S
C2995      C3686   1.475       .  S
O2997      C3000   1.267       .  A
O2998      C3000   1.271       .  A
C3000      C3396   1.474       .  S
O3001      C3006   1.265       .  A
O3002      C3004   1.269       .  A
C3003      O3005   1.277       .  A
C3003      C3449   1.478       .  S
C3004      C3409   1.470       .  S
C3006      C3486   1.460       .  S
Fe3007     O3023   2.070       .  S
Fe3007     O3013   2.046       .  S
Fe3007     O3020   2.068       .  S
Fe3007     O3012   2.044       .  S
Fe3007     O3018   1.990       .  S
Fe3008     O3011   2.051       .  S
Fe3008     O3015   2.044       .  S
Fe3008     O3019   2.049       .  S
Fe3008     O3024   2.044       .  S
Fe3008     O3018   1.958       .  S
Fe3009     O3027   2.077       .  S
Fe3009     O3014   2.092       .  S
Fe3009     O3021   2.078       .  S
Fe3009     O3010   2.060       .  S
Fe3009     O3018   1.992       .  S
O3010      C3017   1.269       .  A
O3011      C3025   1.266       .  A
O3012      C3017   1.267       .  A
O3013      C3016   1.266       .  A
O3014      C3026   1.271       .  A
O3015      C3028   1.266       .  A
C3016      O3021   1.272       .  A
C3016      C3369   1.482       .  S
C3017      C3356   1.469       .  S
O3019      C3022   1.266       .  A
O3020      C3022   1.266       .  A
C3022      C3439   1.471       .  S
O3023      C3028   1.267       .  A
O3024      C3026   1.264       .  A
C3025      O3027   1.268       .  A
C3025      C3389   1.468       .  S
C3026      C3406   1.473       .  S
C3028      C3376   1.470       .  S
Fe3029     O3045   2.066       .  S
Fe3029     O3035   2.066       .  S
Fe3029     O3042   2.080       .  S
Fe3029     O3034   2.044       .  S
Fe3029     O3040   1.987       .  S
Fe3030     O3033   2.040       .  S
Fe3030     O3037   2.049       .  S
Fe3030     O3041   2.036       .  S
Fe3030     O3046   2.055       .  S
Fe3030     O3040   1.957       .  S
Fe3031     O3049   2.099       .  S
Fe3031     O3036   2.087       .  S
Fe3031     O3043   2.069       .  S
Fe3031     O3032   2.085       .  S
Fe3031     O3040   1.987       .  S
O3032      C3039   1.273       .  A
O3033      C3047   1.264       .  A
O3034      C3039   1.266       .  A
O3035      C3038   1.270       .  A
O3036      C3048   1.271       .  A
O3037      C3050   1.267       .  A
C3038      O3043   1.271       .  A
C3038      C3326   1.486       .  S
C3039      C3336   1.471       .  S
O3041      C3044   1.264       .  A
O3042      C3044   1.268       .  A
C3044      C3379   1.473       .  S
O3045      C3050   1.267       .  A
O3046      C3048   1.266       .  A
C3047      O3049   1.273       .  A
C3047      C3476   1.474       .  S
C3048      C3346   1.474       .  S
C3050      C3459   1.468       .  S
Fe3051     O3067   2.043       .  S
Fe3051     O3057   2.042       .  S
Fe3051     O3064   2.038       .  S
Fe3051     O3056   2.045       .  S
Fe3051     O3062   1.960       .  S
Fe3052     O3055   2.053       .  S
Fe3052     O3059   2.073       .  S
Fe3052     O3063   2.074       .  S
Fe3052     O3068   2.058       .  S
Fe3052     O3062   1.992       .  S
Fe3053     O3071   2.064       .  S
Fe3053     O3058   2.068       .  S
Fe3053     O3065   2.093       .  S
Fe3053     O3054   2.082       .  S
Fe3053     O3062   1.991       .  S
O3054      C3061   1.269       .  A
O3055      C3069   1.268       .  A
O3056      C3061   1.265       .  A
O3057      C3060   1.263       .  A
O3058      C3070   1.270       .  A
O3059      C3072   1.268       .  A
C3060      O3065   1.270       .  A
C3060      C3349   1.474       .  S
C3061      C3386   1.467       .  S
O3063      C3066   1.268       .  A
O3064      C3066   1.264       .  A
C3066      C3399   1.467       .  S
O3067      C3072   1.266       .  A
O3068      C3070   1.268       .  A
C3069      O3071   1.271       .  A
C3069      C3529   1.477       .  S
C3070      C3556   1.480       .  S
C3072      C3469   1.473       .  S
Fe3073     O3089   2.039       .  S
Fe3073     O3079   2.049       .  S
Fe3073     O3086   2.046       .  S
Fe3073     O3078   2.040       .  S
Fe3073     O3084   1.959       .  S
Fe3074     O3077   2.044       .  S
Fe3074     O3081   2.084       .  S
Fe3074     O3085   2.067       .  S
Fe3074     O3090   2.066       .  S
Fe3074     O3084   1.993       .  S
Fe3075     O3093   2.060       .  S
Fe3075     O3080   2.064       .  S
Fe3075     O3087   2.087       .  S
Fe3075     O3076   2.082       .  S
Fe3075     O3084   1.989       .  S
O3076      C3083   1.270       .  A
O3077      C3091   1.266       .  A
O3078      C3083   1.264       .  A
O3079      C3082   1.264       .  A
O3080      C3092   1.269       .  A
O3081      C3094   1.270       .  A
C3082      O3087   1.269       .  A
C3082      C3316   1.474       .  S
C3083      C3296   1.465       .  S
O3085      C3088   1.267       .  A
O3086      C3088   1.265       .  A
C3088      C3286   1.466       .  S
O3089      C3094   1.265       .  A
O3090      C3092   1.270       .  A
C3091      O3093   1.270       .  A
C3091      C3359   1.470       .  S
C3092      C3329   1.480       .  S
C3094      C3306   1.477       .  S
Fe3095     O3111   2.079       .  S
Fe3095     O3101   2.049       .  S
Fe3095     O3108   2.072       .  S
Fe3095     O3100   2.060       .  S
Fe3095     O3106   1.993       .  S
Fe3096     O3099   2.051       .  S
Fe3096     O3103   2.038       .  S
Fe3096     O3107   2.043       .  S
Fe3096     O3112   2.044       .  S
Fe3096     O3106   1.958       .  S
Fe3097     O3102   2.095       .  S
Fe3097     O3109   2.069       .  S
Fe3097     O3098   2.056       .  S
O3098      C3105   1.269       .  A
O3099      C3113   1.265       .  A
O3103      C3116   1.265       .  A
C3104      O3109   1.270       .  A
C3104      C3586   1.475       .  S
C3105      C3649   1.475       .  S
O3107      C3110   1.265       .  A
O3108      C3110   1.267       .  A
C3110      C3259   1.471       .  S
O3111      C3116   1.270       .  A
O3112      C3114   1.264       .  A
C3113      O3115   1.267       .  A
C3113      C3276   1.467       .  S
C3114      C3319   1.474       .  S
C3116      C3266   1.474       .  S
Fe3117     O3133   2.071       .  S
Fe3117     O3123   2.064       .  S
Fe3117     O3130   2.080       .  S
Fe3117     O3122   2.047       .  S
Fe3117     O3128   1.978       .  S
Fe3118     O3121   2.036       .  S
Fe3118     O3125   2.053       .  S
Fe3118     O3129   2.041       .  S
Fe3118     O3134   2.055       .  S
Fe3118     O3128   1.952       .  S
Fe3119     O3137   2.096       .  S
Fe3119     O3124   2.070       .  S
Fe3119     O3131   2.048       .  S
Fe3119     O3120   2.079       .  S
Fe3119     O3128   1.984       .  S
O3120      C3127   1.271       .  A
O3121      C3135   1.263       .  A
O3122      C3127   1.267       .  A
O3123      C3126   1.271       .  A
O3124      C3136   1.267       .  A
O3125      C3138   1.267       .  A
C3126      O3131   1.268       .  A
C3126      C3419   1.477       .  S
C3127      C3339   1.471       .  S
O3129      C3132   1.266       .  A
O3130      C3132   1.270       .  A
C3132      C3239   1.476       .  S
O3133      C3138   1.267       .  A
O3134      C3136   1.266       .  A
C3135      O3137   1.272       .  A
C3135      C3279   1.470       .  S
C3136      C3249   1.465       .  S
C3138      C3309   1.473       .  S
Fe3139     O3155   2.076       .  S
Fe3139     O3145   2.057       .  S
Fe3139     O3152   2.073       .  S
Fe3139     O3144   2.059       .  S
Fe3139     O3150   1.990       .  S
Fe3140     O3143   2.042       .  S
Fe3140     O3147   2.040       .  S
Fe3140     O3151   2.045       .  S
Fe3140     O3156   2.042       .  S
Fe3140     O3150   1.962       .  S
Fe3141     O3159   2.091       .  S
Fe3141     O3146   2.089       .  S
Fe3141     O3153   2.069       .  S
Fe3141     O3142   2.074       .  S
Fe3141     O3150   1.987       .  S
O3142      C3149   1.272       .  A
O3143      C3157   1.264       .  A
O3144      C3149   1.269       .  A
O3145      C3148   1.268       .  A
O3146      C3158   1.270       .  A
O3147      C3160   1.264       .  A
C3148      O3153   1.271       .  A
C3148      C3366   1.476       .  S
C3149      C3426   1.484       .  S
O3151      C3154   1.266       .  A
O3152      C3154   1.269       .  A
C3154      C3289   1.470       .  S
O3155      C3160   1.268       .  A
O3156      C3158   1.263       .  A
C3157      O3159   1.271       .  A
C3157      C3216   1.471       .  S
C3158      C3226   1.470       .  S
C3160      C3236   1.471       .  S
Fe3161     O3177   2.064       .  S
Fe3161     O3167   2.076       .  S
Fe3161     O3174   2.085       .  S
Fe3161     O3166   2.043       .  S
Fe3161     O3172   1.967       .  S
Fe3162     O3165   2.043       .  S
Fe3162     O3169   2.060       .  S
Fe3162     O3173   2.045       .  S
Fe3162     O3178   2.068       .  S
Fe3162     O3172   1.941       .  S
Fe3163     O3181   2.093       .  S
Fe3163     O3168   2.075       .  S
Fe3163     O3175   2.054   1_545  S
Fe3163     O3164   2.075   1_545  S
O3164      C3171   1.270       .  A
O3165      C3179   1.266       .  A
O3169      C3182   1.269       .  A
C3170      O3175   1.269       .  A
C3170      C3519   1.477       .  S
C3171      C3599   1.460       .  S
O3173      C3176   1.267       .  A
O3174      C3176   1.271       .  A
C3176      C3206   1.473       .  S
O3177      C3182   1.267       .  A
O3178      C3180   1.268       .  A
C3179      C3299   1.471       .  S
C3180      C3229   1.472       .  S
C3182      C3256   1.467       .  S
Fe3183     O3199   2.044       .  S
Fe3183     O3189   2.049       .  S
Fe3183     O3196   2.045       .  S
Fe3183     O3188   2.042       .  S
Fe3183     O3194   1.958       .  S
Fe3184     O3187   2.048       .  S
Fe3184     O3191   2.076       .  S
Fe3184     O3195   2.067       .  S
Fe3184     O3200   2.061       .  S
Fe3184     O3194   1.988       .  S
Fe3185     O3203   2.064       .  S
Fe3185     O3190   2.057       .  S
Fe3185     O3197   2.075       .  S
Fe3185     O3186   2.087       .  S
Fe3185     O3194   1.988       .  S
O3186      C3193   1.270       .  A
O3187      C3201   1.266       .  A
O3188      C3193   1.264       .  A
O3189      C3192   1.265       .  A
O3190      C3202   1.269       .  A
O3191      C3204   1.269       .  A
C3192      O3197   1.267       .  A
C3192      C3246   1.466       .  S
C3193      C3219   1.470       .  S
O3195      C3198   1.266       .  A
O3196      C3198   1.265       .  A
C3198      C3209   1.466       .  S
O3199      C3204   1.267       .  A
O3200      C3202   1.270       .  A
C3201      O3203   1.269       .  A
C3201      C3509   1.475       .  S
C3202      C3639   1.474       .  S
C3204      C3269   1.476       .  S
C3205      C3206   1.407       .  A
C3205      C3210   1.401       .  A
C3205      F3212   1.358       .  S
C3206      C3207   1.405       .  A
C3207      C3208   1.393       .  A
C3207      F3214   1.356       .  S
C3208      C3209   1.402       .  A
C3208      F3213   1.358       .  S
C3209      C3210   1.405       .  A
C3210      F3211   1.358       .  S
C3215      C3216   1.403       .  A
C3215      C3220   1.400       .  A
C3215      F3222   1.358       .  S
C3216      C3217   1.406       .  A
C3217      C3218   1.400       .  A
C3217      F3224   1.357       .  S
C3218      C3219   1.402       .  A
C3218      F3223   1.358       .  S
C3219      C3220   1.406       .  A
C3220      F3221   1.358       .  S
C3225      C3226   1.404       .  A
C3225      C3230   1.401       .  A
C3225      F3232   1.358       .  S
C3226      C3227   1.406       .  A
C3227      C3228   1.402       .  A
C3227      F3234   1.357       .  S
C3228      C3229   1.403       .  A
C3228      F3233   1.358       .  S
C3229      C3230   1.404       .  A
C3230      F3231   1.356       .  S
C3235      C3236   1.405       .  A
C3235      C3240   1.392       .  A
C3235      F3242   1.358       .  S
C3236      C3237   1.405       .  A
C3237      C3238   1.403       .  A
C3237      F3244   1.357   1_556  S
C3238      C3239   1.408       .  A
C3238      F3243   1.358   1_556  S
C3239      C3240   1.406       .  A
C3240      F3241   1.358       .  S
C3245      C3246   1.405       .  A
C3245      C3250   1.397       .  A
C3245      F3252   1.358       .  S
C3246      C3247   1.403       .  A
C3247      C3248   1.400       .  A
C3247      F3254   1.358       .  S
C3248      C3249   1.405       .  A
C3248      F3253   1.358       .  S
C3249      C3250   1.402       .  A
C3250      F3251   1.358       .  S
C3255      C3256   1.405       .  A
C3255      C3260   1.404       .  A
C3255      F3262   1.358       .  S
C3256      C3257   1.401       .  A
C3257      C3258   1.391       .  A
C3257      F3264   1.356       .  S
C3258      C3259   1.404       .  A
C3258      F3263   1.358       .  S
C3259      C3260   1.408       .  A
C3260      F3261   1.358       .  S
C3265      C3266   1.406       .  A
C3265      C3270   1.404       .  A
C3265      F3272   1.358       .  S
C3266      C3267   1.405       .  A
C3267      C3268   1.390       .  A
C3267      F3274   1.357       .  S
C3268      C3269   1.405       .  A
C3268      F3273   1.358       .  S
C3269      C3270   1.409       .  A
C3270      F3271   1.357       .  S
C3275      C3276   1.401       .  A
C3275      C3280   1.399       .  A
C3275      F3282   1.358       .  S
C3276      C3277   1.405       .  A
C3277      C3278   1.400       .  A
C3277      F3284   1.357       .  S
C3278      C3279   1.403       .  A
C3278      F3283   1.358       .  S
C3279      C3280   1.407       .  A
C3280      F3281   1.357       .  S
C3285      C3286   1.403       .  A
C3285      C3290   1.394       .  A
C3285      F3292   1.357       .  S
C3286      C3287   1.405       .  A
C3287      C3288   1.400       .  A
C3287      F3294   1.358   1_556  S
C3288      C3289   1.406       .  A
C3288      F3293   1.358   1_556  S
C3289      C3290   1.405       .  A
C3290      F3291   1.358       .  S
C3295      C3296   1.405       .  A
C3295      C3300   1.400       .  A
C3295      F3302   1.357       .  S
C3296      C3297   1.401       .  A
C3297      C3298   1.398       .  A
C3297      F3304   1.358       .  S
C3298      C3299   1.406       .  A
C3298      F3303   1.357       .  S
C3299      C3300   1.403       .  A
C3305      C3306   1.406       .  A
C3305      C3310   1.392       .  A
C3305      F3312   1.358       .  S
C3306      C3307   1.408       .  A
C3307      C3308   1.405       .  A
C3307      F3314   1.357   1_556  S
C3308      C3309   1.406       .  A
C3308      F3313   1.357   1_556  S
C3309      C3310   1.403       .  A
C3310      F3311   1.357       .  S
C3315      C3316   1.406       .  A
C3315      C3320   1.402       .  A
C3315      F3322   1.357       .  S
C3316      C3317   1.404       .  A
C3317      C3318   1.402       .  A
C3317      F3324   1.358       .  S
C3318      C3319   1.407       .  A
C3318      F3323   1.358       .  S
C3319      C3320   1.404       .  A
C3320      F3321   1.358       .  S
C3325      C3326   1.409   1_556  A
C3325      F3332   1.358       .  S
C3326      C3327   1.409       .  A
C3327      F3334   1.358       .  S
C3328      C3329   1.409   1_554  A
C3328      F3333   1.358       .  S
C3329      C3330   1.407       .  A
C3330      F3331   1.358       .  S
C3335      C3336   1.405       .  A
C3335      C3340   1.403   1_554  A
C3335      F3342   1.358       .  S
C3336      C3337   1.405       .  A
C3337      C3338   1.394   1_554  A
C3337      F3344   1.359       .  S
C3338      C3339   1.404       .  A
C3338      F3343   1.359       .  S
C3339      C3340   1.406       .  A
C3340      F3341   1.358       .  S
C3345      C3346   1.407       .  A
C3345      C3350   1.405       .  A
C3345      F3352   1.357       .  S
C3346      C3347   1.402       .  A
C3347      C3348   1.399       .  A
C3347      F3354   1.357       .  S
C3348      C3349   1.405       .  A
C3348      F3353   1.357       .  S
C3349      C3350   1.405       .  A
C3350      F3351   1.358       .  S
C3355      C3356   1.407   1_556  A
C3355      F3362   1.358       .  S
C3356      C3357   1.405       .  A
C3357      F3364   1.358       .  S
C3358      C3359   1.408   1_554  A
C3358      F3363   1.358       .  S
C3359      C3360   1.404       .  A
C3360      F3361   1.358       .  S
C3365      C3366   1.404       .  A
C3365      C3370   1.396       .  A
C3365      F3372   1.358       .  S
C3366      C3367   1.408   1_556  A
C3367      C3368   1.399       .  A
C3367      F3374   1.358       .  S
C3368      C3369   1.407       .  A
C3368      F3373   1.358       .  S
C3369      C3370   1.411   1_554  A
C3370      F3371   1.358       .  S
C3375      C3376   1.407       .  A
C3375      C3380   1.403       .  A
C3375      F3382   1.358   1_554  S
C3376      C3377   1.403       .  A
C3377      C3378   1.390       .  A
C3377      F3384   1.357       .  S
C3378      C3379   1.405       .  A
C3378      F3383   1.358       .  S
C3379      C3380   1.407       .  A
C3380      F3381   1.358   1_554  S
C3385      C3386   1.406       .  A
C3385      C3390   1.400       .  A
C3385      F3392   1.357       .  S
C3386      C3387   1.402       .  A
C3387      C3388   1.399       .  A
C3387      F3394   1.358       .  S
C3388      C3389   1.404       .  A
C3388      F3393   1.357       .  S
C3389      C3390   1.403       .  A
C3390      F3391   1.358       .  S
C3395      C3396   1.406       .  A
C3395      C3400   1.392       .  A
C3395      F3402   1.358       .  S
C3396      C3397   1.409       .  A
C3397      C3398   1.401       .  A
C3397      F3404   1.358       .  S
C3398      C3399   1.405       .  A
C3398      F3403   1.358       .  S
C3399      C3400   1.403       .  A
C3400      F3401   1.357       .  S
C3405      C3406   1.405       .  A
C3405      C3410   1.398       .  A
C3405      F3412   1.357       .  S
C3406      C3407   1.405       .  A
C3407      C3408   1.403       .  A
C3407      F3414   1.358       .  S
C3408      C3409   1.406       .  A
C3408      F3413   1.357       .  S
C3409      C3410   1.402       .  A
C3415      C3416   1.405       .  A
C3415      F3422   1.358       .  S
C3416      C3417   1.406   1_554  A
C3417      C3418   1.395       .  A
C3417      F3424   1.358       .  S
C3418      F3423   1.358       .  S
C3419      C3420   1.408   1_556  A
C3420      F3421   1.358       .  S
C3425      C3426   1.411   1_554  A
C3425      F3432   1.358       .  S
C3426      C3427   1.408       .  A
C3427      F3434   1.358       .  S
C3428      C3429   1.408   1_556  A
C3428      F3433   1.358       .  S
C3429      C3430   1.406       .  A
C3430      F3431   1.358       .  S
C3435      C3436   1.406       .  A
C3435      C3440   1.405       .  A
C3435      F3442   1.358   1_554  S
C3436      C3437   1.404       .  A
C3437      C3438   1.390       .  A
C3437      F3444   1.357       .  S
C3438      C3439   1.402       .  A
C3438      F3443   1.357       .  S
C3439      C3440   1.408       .  A
C3440      F3441   1.358   1_554  S
C3445      C3446   1.403       .  A
C3445      C3450   1.402       .  A
C3445      F3452   1.358       .  S
C3446      C3447   1.407       .  A
C3447      C3448   1.402       .  A
C3447      F3454   1.356       .  S
C3448      C3449   1.404       .  A
C3449      C3450   1.408       .  A
C3450      F3451   1.357       .  S
C3455      C3456   1.408       .  A
C3455      C3460   1.402       .  A
C3455      F3462   1.358   1_554  S
C3456      C3457   1.404       .  A
C3457      C3458   1.390       .  A
C3457      F3464   1.357       .  S
C3458      C3459   1.402       .  A
C3458      F3463   1.356       .  S
C3459      C3460   1.405       .  A
C3460      F3461   1.358   1_554  S
C3465      C3466   1.405       .  A
C3465      C3470   1.404       .  A
C3465      F3472   1.358       .  S
C3466      C3467   1.403       .  A
C3467      C3468   1.390       .  A
C3467      F3474   1.356       .  S
C3468      C3469   1.404       .  A
C3468      F3473   1.358       .  S
C3469      C3470   1.409       .  A
C3470      F3471   1.358       .  S
C3475      C3476   1.407       .  A
C3475      C3480   1.402       .  A
C3475      F3482   1.356       .  S
C3476      C3477   1.403       .  A
C3477      C3478   1.402       .  A
C3477      F3484   1.357       .  S
C3478      C3479   1.406       .  A
C3478      F3483   1.356       .  S
C3479      C3480   1.403       .  A
C3480      F3481   1.358       .  S
C3485      C3486   1.403       .  A
C3485      C3490   1.400       .  A
C3485      F3492   1.358       .  S
C3486      C3487   1.401       .  A
C3487      C3488   1.391       .  A
C3487      F3494   1.358       .  S
C3488      C3489   1.405       .  A
C3488      F3493   1.357       .  S
C3489      C3490   1.407       .  A
C3490      F3491   1.358       .  S
C3495      C3496   1.406       .  A
C3495      C3500   1.401       .  A
C3495      F3502   1.357       .  S
C3496      C3497   1.403       .  A
C3497      C3498   1.399       .  A
C3497      F3504   1.357       .  S
C3498      C3499   1.404       .  A
C3498      F3503   1.357       .  S
C3499      C3500   1.403       .  A
C3500      F3501   1.358       .  S
C3505      C3506   1.406       .  A
C3505      C3510   1.394       .  A
C3505      F3512   1.358       .  S
C3506      C3507   1.404       .  A
C3507      C3508   1.397       .  A
C3507      F3514   1.358       .  S
C3508      C3509   1.410       .  A
C3508      F3513   1.358       .  S
C3509      C3510   1.406       .  A
C3510      F3511   1.358       .  S
C3515      C3516   1.412       .  A
C3515      C3520   1.395       .  A
C3515      F3522   1.358       .  S
C3516      C3517   1.409       .  A
C3517      C3518   1.398       .  A
C3517      F3524   1.358       .  S
C3518      C3519   1.407       .  A
C3518      F3523   1.358       .  S
C3519      C3520   1.405       .  A
C3520      F3521   1.359       .  S
C3525      C3526   1.405       .  A
C3525      C3530   1.396       .  A
C3525      F3532   1.358       .  S
C3526      C3527   1.408       .  A
C3527      C3528   1.395       .  A
C3527      F3534   1.358       .  S
C3528      C3529   1.406       .  A
C3528      F3533   1.358       .  S
C3529      C3530   1.409       .  A
C3530      F3531   1.358       .  S
C3535      C3536   1.404       .  A
C3535      C3540   1.398       .  A
C3535      F3542   1.358       .  S
C3536      C3537   1.406       .  A
C3537      C3538   1.395       .  A
C3537      F3544   1.358       .  S
C3538      C3539   1.409       .  A
C3538      F3543   1.358       .  S
C3539      C3540   1.412       .  A
C3540      F3541   1.358       .  S
C3545      C3546   1.405       .  A
C3545      C3550   1.399       .  A
C3545      F3552   1.356       .  S
C3546      C3547   1.404       .  A
C3547      C3548   1.402       .  A
C3547      F3554   1.358       .  S
C3548      C3549   1.406       .  A
C3548      F3553   1.357       .  S
C3549      C3550   1.403       .  A
C3550      F3551   1.357       .  S
C3555      C3556   1.410       .  A
C3555      C3560   1.400       .  A
C3555      F3562   1.358       .  S
C3556      C3557   1.406       .  A
C3557      C3558   1.396       .  A
C3557      F3564   1.358       .  S
C3558      C3559   1.408       .  A
C3558      F3563   1.358       .  S
C3559      C3560   1.406       .  A
C3560      F3561   1.358       .  S
C3565      C3566   1.409       .  A
C3565      C3570   1.395       .  A
C3565      F3572   1.358       .  S
C3566      C3567   1.406       .  A
C3567      C3568   1.397       .  A
C3567      F3574   1.358       .  S
C3568      C3569   1.407       .  A
C3568      F3573   1.358       .  S
C3569      C3570   1.404       .  A
C3570      F3571   1.358       .  S
C3575      C3576   1.403       .  A
C3575      C3580   1.393       .  A
C3575      F3582   1.356       .  S
C3576      C3577   1.406       .  A
C3577      C3578   1.401       .  A
C3578      C3579   1.405       .  A
C3578      F3583   1.358       .  S
C3579      C3580   1.402       .  A
C3580      F3581   1.357       .  S
C3585      C3586   1.407       .  A
C3585      C3590   1.397       .  A
C3585      F3592   1.358       .  S
C3586      C3587   1.404       .  A
C3587      C3588   1.397       .  A
C3587      F3594   1.358       .  S
C3588      C3589   1.411       .  A
C3588      F3593   1.358       .  S
C3589      C3590   1.408       .  A
C3590      F3591   1.358       .  S
C3595      C3596   1.409       .  A
C3595      C3600   1.399       .  A
C3595      F3602   1.358       .  S
C3596      C3597   1.410       .  A
C3597      C3598   1.393       .  A
C3597      F3604   1.358       .  S
C3598      C3599   1.399       .  A
C3599      C3600   1.402       .  A
C3600      F3601   1.358       .  S
C3605      C3606   1.406       .  A
C3605      C3610   1.403       .  A
C3606      C3607   1.402       .  A
C3607      C3608   1.391       .  A
C3607      F3614   1.358       .  S
C3608      C3609   1.404       .  A
C3608      F3613   1.358       .  S
C3609      C3610   1.407       .  A
C3610      F3611   1.358       .  S
C3615      C3620   1.403       .  A
C3615      F3622   1.357       .  S
C3616      C3617   1.403       .  A
C3617      C3618   1.401       .  A
C3617      F3624   1.357       .  S
C3618      F3623   1.357       .  S
C3619      C3620   1.404       .  A
C3620      F3621   1.358       .  S
C3625      C3626   1.403       .  A
C3625      C3630   1.399       .  A
C3625      F3632   1.357       .  S
C3627      C3628   1.402       .  A
C3627      F3634   1.357       .  S
C3628      C3629   1.404       .  A
C3628      F3633   1.358       .  S
C3630      F3631   1.356       .  S
C3635      C3636   1.406       .  A
C3635      C3640   1.396       .  A
C3635      F3642   1.358       .  S
C3636      C3637   1.408       .  A
C3637      C3638   1.395       .  A
C3637      F3644   1.358       .  S
C3638      C3639   1.406       .  A
C3638      F3643   1.358       .  S
C3639      C3640   1.407       .  A
C3640      F3641   1.358       .  S
C3645      C3646   1.407       .  A
C3645      C3650   1.394       .  A
C3645      F3652   1.358       .  S
C3646      C3647   1.407       .  A
C3647      C3648   1.396       .  A
C3647      F3654   1.358       .  S
C3648      C3649   1.408       .  A
C3648      F3653   1.358       .  S
C3649      C3650   1.407       .  A
C3650      F3651   1.358       .  S
C3655      C3656   1.406       .  A
C3655      C3660   1.404       .  A
C3656      C3657   1.404       .  A
C3657      C3658   1.391       .  A
C3657      F3664   1.357       .  S
C3658      C3659   1.401       .  A
C3658      F3663   1.357       .  S
C3659      C3660   1.407       .  A
C3665      C3666   1.406       .  A
C3665      C3670   1.401       .  A
C3665      F3672   1.358       .  S
C3666      C3667   1.403       .  A
C3667      C3668   1.391       .  A
C3667      F3674   1.357       .  S
C3668      C3669   1.405       .  A
C3668      F3673   1.357       .  S
C3669      C3670   1.407       .  A
C3675      C3676   1.402       .  A
C3675      C3680   1.399       .  A
C3675      F3682   1.358       .  S
C3676      C3677   1.405       .  A
C3677      C3678   1.400       .  A
C3677      F3684   1.357       .  S
C3678      C3679   1.403       .  A
C3678      F3683   1.358       .  S
C3679      C3680   1.405       .  A
C3680      F3681   1.357       .  S
C3685      C3686   1.407   1_455  A
C3685      C3690   1.395   1_455  A
C3685      F3692   1.359       .  S
C3686      C3687   1.406       .  A
C3687      C3688   1.402       .  A
C3688      C3689   1.406       .  A
C3688      F3693   1.358       .  S
C3689      C3690   1.404       .  A
C3690      F3691   1.359   1_655  S
C3695      C3696   1.413       .  A
C3695      C3700   1.398       .  A
C3695      F3702   1.358       .  S
C3696      C3697   1.410       .  A
C3697      C3698   1.396       .  A
C3698      C3699   1.406       .  A
C3699      C3700   1.405       .  A
C3700      F3701   1.358       .  S
C3705      C3706   1.402       .  A
C3705      C3710   1.392       .  A
C3705      F3712   1.357       .  S
C3706      C3707   1.407       .  A
C3707      C3708   1.405       .  A
C3708      C3709   1.407       .  A
C3708      F3713   1.358       .  S
C3709      C3710   1.402       .  A
C3710      F3711   1.356       .  S
C3715      C3720   1.398       .  A
C3715      F3722   1.357       .  S
C3716      C3717   1.405       .  A
C3717      C3718   1.403       .  A
C3717      F3724   1.358       .  S
C3718      F3723   1.357       .  S
C3719      C3720   1.402       .  A
C3720      F3721   1.357       .  S
C3725      C3726   1.403       .  A
C3725      F3732   1.357       .  S
C3726      C3727   1.406   1_565  A
C3727      F3734   1.356       .  S
C3728      C3729   1.405       .  A
C3728      F3733   1.357       .  S
C3729      C3730   1.407       .  A
C3730      F3731   1.357       .  S
C3735      C3736   1.404       .  A
C3735      C3740   1.391       .  A
C3735      F3742   1.357       .  S
C3736      C3737   1.406       .  A
C3737      C3738   1.400       .  A
C3738      C3739   1.406       .  A
C3738      F3743   1.358       .  S
C3739      C3740   1.403       .  A
C3740      F3741   1.357       .  S
